ligand_pdbs\056.pdb
 OpenBabel06092512053D

 20 21  0  0  0  0  0  0  0  0999 V2000
   15.2720  -17.5170  -27.2950 O   0  0  0  0  0  0  0  0  0  0  0  0
   16.3300  -17.9240  -27.8080 C   0  0  0  0  0  0  0  0  0  0  0  0
   16.6260  -19.1370  -27.9140 O   0  0  0  0  0  0  0  0  0  0  0  0
   17.2520  -16.8630  -28.2850 C   0  0  0  0  0  0  0  0  0  0  0  0
   17.9540  -16.9460  -29.4880 C   0  0  0  0  0  0  0  0  0  0  0  0
   18.7890  -15.8990  -29.8430 C   0  0  0  0  0  0  0  0  0  0  0  0
   18.8740  -14.8050  -29.0190 C   0  0  0  0  0  0  0  0  0  0  0  0
   18.1700  -14.7350  -27.8340 C   0  0  0  0  0  0  0  0  0  0  0  0
   17.3460  -15.7650  -27.4640 C   0  0  0  0  0  0  0  0  0  0  0  0
   19.4740  -14.1710  -31.6550 S   0  0  0  0  0  0  0  0  0  0  0  0
   19.9340  -12.2450  -35.7860 C   0  0  0  0  0  0  0  0  0  0  0  0
   19.5990  -15.8520  -31.1140 C   0  0  0  0  0  0  0  0  0  0  0  0
   19.9070  -13.0510  -34.6470 C   0  0  0  0  0  0  0  0  0  0  0  0
   18.6430  -14.3410  -34.5580 Cl  0  0  0  0  0  0  0  0  0  0  0  0
   20.9110  -12.7870  -33.5580 C   0  0  0  0  0  0  0  0  0  0  0  0
   21.0130  -13.5780  -32.2690 C   0  0  0  0  0  0  0  0  0  0  0  0
   21.8350  -11.7650  -33.7380 C   0  0  0  0  0  0  0  0  0  0  0  0
   21.8060  -11.0040  -34.8990 C   0  0  0  0  0  0  0  0  0  0  0  0
   20.8750  -11.2240  -35.9160 C   0  0  0  0  0  0  0  0  0  0  0  0
   20.8870  -10.1860  -37.3970 Cl  0  0  0  0  0  0  0  0  0  0  0  0
  2  1  1  0  0  0  0
  3  2  2  0  0  0  0
  4  2  1  0  0  0  0
  4  9  1  0  0  0  0
  5  4  2  0  0  0  0
  6  5  1  0  0  0  0
  6  7  2  0  0  0  0
  7  8  1  0  0  0  0
  8  9  2  0  0  0  0
 10 12  1  0  0  0  0
 11 13  1  0  0  0  0
 12  6  1  0  0  0  0
 13 14  1  0  0  0  0
 13 15  2  0  0  0  0
 15 16  1  0  0  0  0
 16 10  1  0  0  0  0
 17 15  1  0  0  0  0
 18 17  2  0  0  0  0
 19 11  2  0  0  0  0
 19 18  1  0  0  0  0
 20 19  1  0  0  0  0
M  END
