ligand_pdbs\0XU.pdb
 OpenBabel06092512053D

 27 29  0  0  1  0  0  0  0  0999 V2000
  -27.8500  -36.5070   -6.9100 N   0  0  0  0  0  0  0  0  0  0  0  0
  -27.4800  -37.8070   -6.3360 C   0  0  2  0  0  0  0  0  0  0  0  0
  -26.3460  -38.4330   -7.1260 C   0  0  0  0  0  0  0  0  0  0  0  0
  -26.5040  -38.2380   -8.4720 O   0  0  0  0  0  0  0  0  0  0  0  0
  -25.4020  -39.0470   -6.6310 O   0  0  0  0  0  0  0  0  0  0  0  0
  -28.6510  -38.7670   -6.0710 C   0  0  0  0  0  0  0  0  0  0  0  0
  -29.5600  -39.1140   -7.2520 C   0  0  0  0  0  0  0  0  0  0  0  0
  -30.9230  -39.6130   -6.7390 C   0  0  2  0  0  0  0  0  0  0  0  0
  -31.7780  -40.2730   -7.7550 N   0  0  0  0  0  0  0  0  0  0  0  0
  -31.6580  -38.4510   -6.1400 C   0  0  0  0  0  0  0  0  0  0  0  0
  -32.2090  -38.3120   -4.9340 C   0  0  0  0  0  0  0  0  0  0  0  0
  -32.9300  -37.1690   -4.6800 O   0  0  0  0  0  0  0  0  0  0  0  0
  -32.1530  -39.2290   -3.7530 C   0  0  1  0  0  0  0  0  0  0  0  0
  -31.1190  -38.7660   -2.9000 O   0  0  0  0  0  0  0  0  0  0  0  0
  -33.5040  -38.9170   -3.1230 C   0  0  1  0  0  0  0  0  0  0  0  0
  -33.5150  -38.9510   -1.7030 O   0  0  0  0  0  0  0  0  0  0  0  0
  -33.7430  -37.4770   -3.5490 C   0  0  2  0  0  0  0  0  0  0  0  0
  -35.1330  -37.1530   -3.8210 N   0  0  0  0  0  0  0  0  0  0  0  0
  -36.1020  -37.9080   -4.4340 C   0  0  0  0  0  0  0  0  0  0  0  0
  -37.3010  -37.3180   -4.3830 N   0  0  0  0  0  0  0  0  0  0  0  0
  -37.0810  -36.1290   -3.6910 C   0  0  0  0  0  0  0  0  0  0  0  0
  -37.8800  -35.0410   -3.3540 C   0  0  0  0  0  0  0  0  0  0  0  0
  -39.2720  -34.9700   -3.6660 N   0  0  0  0  0  0  0  0  0  0  0  0
  -37.3140  -34.0270   -2.6620 N   0  0  0  0  0  0  0  0  0  0  0  0
  -35.9890  -34.0550   -2.3700 C   0  0  0  0  0  0  0  0  0  0  0  0
  -35.1100  -35.0360   -2.6600 N   0  0  0  0  0  0  0  0  0  0  0  0
  -35.7300  -36.0270   -3.3370 C   0  0  0  0  0  0  0  0  0  0  0  0
  2  1  1  6  0  0  0
  2  6  1  0  0  0  0
  3  5  1  0  0  0  0
  3  2  1  0  0  0  0
  4  3  2  0  0  0  0
  7  8  1  0  0  0  0
  7  6  1  0  0  0  0
  8  9  1  6  0  0  0
  8 10  1  0  0  0  0
 10 11  2  0  0  0  0
 11 12  1  0  0  0  0
 11 13  1  0  0  0  0
 12 17  1  0  0  0  0
 13 15  1  0  0  0  0
 13 14  1  1  0  0  0
 15 16  1  1  0  0  0
 17 18  1  6  0  0  0
 17 15  1  0  0  0  0
 18 27  1  0  0  0  0
 19 20  1  0  0  0  0
 19 18  1  0  0  0  0
 20 21  2  0  0  0  0
 21 22  1  0  0  0  0
 21 27  1  0  0  0  0
 22 24  2  0  0  0  0
 23 22  1  0  0  0  0
 24 25  1  0  0  0  0
 26 25  1  0  0  0  0
 27 26  2  0  0  0  0
M  END
