ligand_pdbs\17H.pdb
 OpenBabel06092512053D

 23 26  0  0  1  0  0  0  0  0999 V2000
   26.1860    6.5660    4.2300 C   0  0  0  0  0  0  0  0  0  0  0  0
   23.9360    5.3010    4.5210 C   0  0  0  0  0  0  0  0  0  0  0  0
   24.8950    1.5880    4.3350 C   0  0  0  0  0  0  0  0  0  0  0  0
   24.1130    2.7540    4.9660 C   0  0  0  0  0  0  0  0  0  0  0  0
   27.0300    2.9390    4.5530 C   0  0  2  0  0  0  0  0  0  0  0  0
   28.5290    2.8900    4.2100 C   0  0  0  0  0  0  0  0  0  0  0  0
   26.9780    5.4000    4.0800 C   0  0  0  0  0  0  0  0  0  0  0  0
   24.7530    6.4030    4.2380 C   0  0  0  0  0  0  0  0  0  0  0  0
   24.7280    4.1340    4.6640 C   0  0  0  0  0  0  0  0  0  0  0  0
   26.3520    1.5620    4.9090 C   0  0  2  0  0  0  0  0  0  0  0  0
   26.2640    4.1210    4.4800 C   0  0  0  0  0  0  0  0  0  0  0  0
   29.3230    1.7300    4.1900 C   0  0  0  0  0  0  0  0  0  0  0  0
   28.7190    0.4120    4.5790 C   0  0  1  0  0  0  0  0  0  0  0  0
   27.2050    0.4630    4.2080 C   0  0  1  0  0  0  0  0  0  0  0  0
   26.6720   -0.9750    4.3500 C   0  0  0  0  0  0  0  0  0  0  0  0
   27.9280   -1.7590    3.8640 C   0  0  0  0  0  0  0  0  0  0  0  0
   29.1750   -0.7790    3.7760 C   0  0  1  0  0  0  0  0  0  0  0  0
   28.7820    0.2990    6.2170 C   0  0  0  0  0  0  0  0  0  0  0  0
   30.1120    0.7600    7.0210 C   0  0  0  0  0  0  0  0  0  0  0  0
   30.2000   -1.7920    1.7320 C   0  0  0  0  0  0  0  0  0  0  0  0
   29.3560   -0.5200    2.2780 C   0  0  0  0  0  0  0  0  0  0  0  0
   24.0530    7.5960    3.9480 O   0  0  0  0  0  0  0  0  0  0  0  0
   30.3170   -1.3240    4.4910 O   0  0  0  0  0  0  0  0  0  0  0  0
  1  8  1  0  0  0  0
  2  9  1  0  0  0  0
  3  4  1  0  0  0  0
  5  6  1  6  0  0  0
  5 10  1  0  0  0  0
  7  1  2  0  0  0  0
  7 11  1  0  0  0  0
  8  2  2  0  0  0  0
  9  4  1  0  0  0  0
 10  3  1  6  0  0  0
 11  5  1  0  0  0  0
 11  9  2  0  0  0  0
 12  6  2  0  0  0  0
 12 13  1  0  0  0  0
 13 18  1  1  0  0  0
 14 15  1  1  0  0  0
 14 13  1  0  0  0  0
 14 10  1  0  0  0  0
 16 15  1  0  0  0  0
 17 16  1  0  0  0  0
 17 23  1  1  0  0  0
 17 13  1  0  0  0  0
 18 19  1  0  0  0  0
 20 21  1  0  0  0  0
 21 17  1  0  0  0  0
 22  8  1  0  0  0  0
M  END
