ligand_pdbs\30Z.pdb
 OpenBabel06092512053D

 22 23  0  0  1  0  0  0  0  0999 V2000
   20.9530   14.4150   31.9130 O   0  0  0  0  0  0  0  0  0  0  0  0
   20.0930   15.4680   32.0660 C   0  0  0  0  0  0  0  0  0  0  0  0
   18.9210   15.5380   31.3190 C   0  0  0  0  0  0  0  0  0  0  0  0
   20.3960   16.5560   33.0310 C   0  0  0  0  0  0  0  0  0  0  0  0
   21.5330   16.5340   33.7780 O   0  0  0  0  0  0  0  0  0  0  0  0
   19.5050   17.6100   33.1650 C   0  0  0  0  0  0  0  0  0  0  0  0
   18.3470   17.6340   32.3960 C   0  0  0  0  0  0  0  0  0  0  0  0
   18.0580   16.6160   31.4880 C   0  0  0  0  0  0  0  0  0  0  0  0
   16.7850   16.6970   30.6800 C   0  0  0  0  0  0  0  0  0  0  0  0
   17.0480   16.1300   29.2930 C   0  0  2  0  0  0  0  0  0  0  0  0
   18.5240   15.7800   29.1430 C   0  0  0  0  0  0  0  0  0  0  0  0
   16.5950   17.0600   28.1700 C   0  0  1  0  0  0  0  0  0  0  0  0
   16.8980   16.3570   26.8610 C   0  0  0  0  0  0  0  0  0  0  0  0
   15.1110   17.4120   28.2390 C   0  0  0  0  0  0  0  0  0  0  0  0
   14.8180   18.9020   28.3000 C   0  0  0  0  0  0  0  0  0  0  0  0
   15.7100   19.7850   28.9090 C   0  0  0  0  0  0  0  0  0  0  0  0
   13.6290   19.3870   27.7530 C   0  0  0  0  0  0  0  0  0  0  0  0
   13.3150   20.7430   27.7960 C   0  0  0  0  0  0  0  0  0  0  0  0
   12.1530   21.2110   27.2590 O   0  0  0  0  0  0  0  0  0  0  0  0
   14.2720   21.6770   28.4400 C   0  0  0  0  0  0  0  0  0  0  0  0
   15.4440   21.1530   28.9760 C   0  0  0  0  0  0  0  0  0  0  0  0
   14.0070   23.0150   28.5100 O   0  0  0  0  0  0  0  0  0  0  0  0
  1  2  1  0  0  0  0
  2  4  1  0  0  0  0
  3  8  1  0  0  0  0
  3  2  2  0  0  0  0
  4  6  2  0  0  0  0
  4  5  1  0  0  0  0
  7  6  1  0  0  0  0
  8  7  2  0  0  0  0
  9  8  1  0  0  0  0
 10 11  1  6  0  0  0
 10  9  1  0  0  0  0
 12 13  1  6  0  0  0
 12 14  1  0  0  0  0
 12 10  1  0  0  0  0
 14 15  1  0  0  0  0
 15 16  1  0  0  0  0
 16 21  2  0  0  0  0
 17 18  1  0  0  0  0
 17 15  2  0  0  0  0
 18 20  2  0  0  0  0
 19 18  1  0  0  0  0
 20 22  1  0  0  0  0
 20 21  1  0  0  0  0
M  END
