ligand_pdbs\3E0.pdb
 OpenBabel06092512053D

 20 22  0  0  0  0  0  0  0  0999 V2000
   30.2250   -0.4050    4.8340 C   0  0  0  0  0  0  0  0  0  0  0  0
   30.3220   -1.3310    3.6990 C   0  0  0  0  0  0  0  0  0  0  0  0
   29.3330   -2.4030    3.7890 O   0  0  0  0  0  0  0  0  0  0  0  0
   27.9680   -1.8500    3.6650 C   0  0  0  0  0  0  0  0  0  0  0  0
   27.7530   -0.9510    4.8320 C   0  0  0  0  0  0  0  0  0  0  0  0
   28.7720    0.0880    4.8560 N   0  0  0  0  0  0  0  0  0  0  0  0
   28.3820    1.4370    4.6680 C   0  0  0  0  0  0  0  0  0  0  0  0
   27.1720    1.8170    4.6010 N   0  0  0  0  0  4  0  0  0  0  0  0
   29.6580    2.6390    4.5870 S   0  0  0  0  0  0  0  0  0  0  0  0
   28.3630    3.7880    4.3720 C   0  0  0  0  0  0  0  0  0  0  0  0
   27.1480    3.1920    4.4040 C   0  0  0  0  0  0  0  0  0  0  0  0
   25.8000    3.7620    4.2820 C   0  0  0  0  0  0  0  0  0  0  0  0
   24.6530    2.9840    4.6150 C   0  0  0  0  0  0  0  0  0  0  0  0
   23.3580    3.4620    4.5210 C   0  0  0  0  0  0  0  0  0  0  0  0
   23.1580    4.7800    4.1490 C   0  0  0  0  0  0  0  0  0  0  0  0
   24.2370    5.5360    3.8600 C   0  0  0  0  0  0  0  0  0  0  0  0
   24.0910    6.8430    3.4070 F   0  0  0  0  0  0  0  0  0  0  0  0
   25.5640    5.1420    3.8830 C   0  0  0  0  0  0  0  0  0  0  0  0
   26.6660    5.9190    3.5580 O   0  0  0  0  0  0  0  0  0  0  0  0
   26.6870    7.2790    4.0690 C   0  0  0  0  0  0  0  0  0  0  0  0
  1  6  1  0  0  0  0
  2  3  1  0  0  0  0
  2  1  1  0  0  0  0
  4  3  1  0  0  0  0
  4  5  1  0  0  0  0
  5  6  1  0  0  0  0
  7  6  1  0  0  0  0
  8  7  2  0  0  0  0
  9  7  1  0  0  0  0
 10 11  1  0  0  0  0
 10  9  1  0  0  0  0
 11  8  2  0  0  0  0
 12 11  1  0  0  0  0
 12 13  1  0  0  0  0
 14 13  2  0  0  0  0
 15 14  1  0  0  0  0
 16 18  1  0  0  0  0
 16 15  2  0  0  0  0
 17 16  1  0  0  0  0
 18 12  2  0  0  0  0
 19 18  1  0  0  0  0
 19 20  1  0  0  0  0
M  END
