ligand_pdbs/4HY_A_933 .pdb
 OpenBabel05122511023D

 21 22  0  0  0  0  0  0  0  0999 V2000
   15.2970   19.9200   27.3220 C   0  0  0  0  0  0  0  0  0  0  0  0
   17.8360   16.5120   29.8760 C   0  0  0  0  0  0  0  0  0  0  0  0
   15.3180   19.8530   28.7120 C   0  0  0  0  0  0  0  0  0  0  0  0
   18.8420   17.4350   29.5940 C   0  0  0  0  0  0  0  0  0  0  0  0
   15.7900   18.7100   29.3500 C   0  0  0  0  0  0  0  0  0  0  0  0
   20.0310   17.4240   30.3200 C   0  0  0  0  0  0  0  0  0  0  0  0
   16.2470   17.6280   28.6000 C   0  0  0  0  0  0  0  0  0  0  0  0
   20.2240   16.4780   31.3220 C   0  0  0  0  0  0  0  0  0  0  0  0
   16.2190   17.6950   27.2080 C   0  0  0  0  0  0  0  0  0  0  0  0
   19.2250   15.5520   31.6060 C   0  0  0  0  0  0  0  0  0  0  0  0
   15.7480   18.8380   26.5700 C   0  0  0  0  0  0  0  0  0  0  0  0
   18.0350   15.5740   30.8850 C   0  0  0  0  0  0  0  0  0  0  0  0
   14.7880   21.1820   26.6220 C   0  0  0  0  0  0  0  0  0  0  0  0
   13.2620   21.2560   26.7210 C   0  0  0  0  0  0  0  0  0  0  0  0
   15.7720   18.6270   31.4440 I   0  0  0  0  0  0  0  0  0  0  0  0
   21.4930   18.8920   30.0040 I   0  0  0  0  0  0  0  0  0  0  0  0
   16.7480   16.0190   26.0680 I   0  0  0  0  0  0  0  0  0  0  0  0
   12.6090   20.8810   25.7240 O   0  0  0  0  0  0  0  0  0  0  0  0
   16.6510   16.4750   29.2020 O   0  0  0  0  0  0  0  0  0  0  0  0
   21.3940   16.4490   32.0150 O   0  0  0  0  0  0  0  0  0  0  0  0
   12.7840   21.6870   27.7930 O   0  0  0  0  0  0  0  0  0  0  0  0
  1  3  1  0  0  0  0
  2 12  1  0  0  0  0
  3  5  2  0  0  0  0
  4  2  2  0  0  0  0
  4  6  1  0  0  0  0
  5 15  1  0  0  0  0
  6  8  2  0  0  0  0
  7 19  1  0  0  0  0
  7  5  1  0  0  0  0
  8 10  1  0  0  0  0
  8 20  1  0  0  0  0
  9  7  2  0  0  0  0
 11  9  1  0  0  0  0
 11  1  2  0  0  0  0
 12 10  2  0  0  0  0
 13 14  1  0  0  0  0
 13  1  1  0  0  0  0
 14 21  1  0  0  0  0
 16  6  1  0  0  0  0
 17  9  1  0  0  0  0
 18 14  2  0  0  0  0
 19  2  1  0  0  0  0
M  END
