ligand_pdbs\51K.pdb
 OpenBabel06092512053D

 26 28  0  0  0  0  0  0  0  0999 V2000
  -31.9550   68.2010   26.8720 F   0  0  0  0  0  0  0  0  0  0  0  0
  -33.1920   68.4090   26.4640 C   0  0  0  0  0  0  0  0  0  0  0  0
  -34.0640   67.5150   26.9080 F   0  0  0  0  0  0  0  0  0  0  0  0
  -33.1910   68.3700   25.1550 F   0  0  0  0  0  0  0  0  0  0  0  0
  -33.6590   69.7570   26.8720 C   0  0  0  0  0  0  0  0  0  0  0  0
  -35.0060   69.9900   26.7650 C   0  0  0  0  0  0  0  0  0  0  0  0
  -32.7940   70.7530   27.3190 C   0  0  0  0  0  0  0  0  0  0  0  0
  -33.3090   71.9930   27.6560 C   0  0  0  0  0  0  0  0  0  0  0  0
  -34.6670   72.2350   27.5450 C   0  0  0  0  0  0  0  0  0  0  0  0
  -35.5030   71.2280   27.0880 C   0  0  0  0  0  0  0  0  0  0  0  0
  -36.9640   71.4490   26.9630 C   0  0  0  0  0  0  0  0  0  0  0  0
  -37.5580   70.8900   28.0000 F   0  0  0  0  0  0  0  0  0  0  0  0
  -37.2000   72.7510   26.8690 F   0  0  0  0  0  0  0  0  0  0  0  0
  -37.4170   70.8190   25.9080 F   0  0  0  0  0  0  0  0  0  0  0  0
  -32.4420   73.0770   28.1560 C   0  0  0  0  0  0  0  0  0  0  0  0
  -31.2250   72.9010   28.6890 N   0  0  0  0  0  0  0  0  0  0  0  0
  -30.8130   74.1790   29.0180 N   0  0  0  0  0  0  0  0  0  0  0  0
  -31.7420   75.0750   28.6950 C   0  0  0  0  0  0  0  0  0  0  0  0
  -32.7610   74.3920   28.1490 N   0  0  0  0  0  0  0  0  0  0  0  0
  -29.4870   74.2680   29.6480 C   0  0  0  0  0  0  0  0  0  0  0  0
  -28.4080   73.6130   28.7970 C   0  0  0  0  0  0  0  0  0  0  0  0
  -28.0900   74.4910   27.6170 C   0  0  0  0  0  0  0  0  0  0  0  0
  -26.9740   74.4270   26.8570 N   0  0  0  0  0  0  0  0  0  0  0  0
  -27.0620   75.4150   25.8610 N   0  0  0  0  0  0  0  0  0  0  0  0
  -28.2400   76.0570   26.0560 C   0  0  0  0  0  0  0  0  0  0  0  0
  -28.8910   75.4880   27.1420 O   0  0  0  0  0  0  0  0  0  0  0  0
  2  1  1  0  0  0  0
  2  5  1  0  0  0  0
  2  3  1  0  0  0  0
  4  2  1  0  0  0  0
  5  7  1  0  0  0  0
  6  5  2  0  0  0  0
  6 10  1  0  0  0  0
  7  8  2  0  0  0  0
  8 15  1  0  0  0  0
  9  8  1  0  0  0  0
 10  9  2  0  0  0  0
 11 10  1  0  0  0  0
 11 12  1  0  0  0  0
 13 11  1  0  0  0  0
 14 11  1  0  0  0  0
 15 16  2  0  0  0  0
 16 17  1  0  0  0  0
 17 20  1  0  0  0  0
 18 17  1  0  0  0  0
 19 15  2  0  0  0  0
 19 18  1  0  0  0  0
 21 20  1  0  0  0  0
 22 21  1  0  0  0  0
 23 22  2  0  0  0  0
 24 25  2  0  0  0  0
 24 23  1  0  0  0  0
 25 26  1  0  0  0  0
 26 22  1  0  0  0  0
M  END
