ligand_pdbs\51Y.pdb
 OpenBabel06092512053D

 18 19  0  0  1  0  0  0  0  0999 V2000
  -27.7140    3.4670   -4.4210 C   0  0  0  0  0  0  0  0  0  0  0  0
  -26.7160    2.5430   -4.6690 C   0  0  0  0  0  0  0  0  0  0  0  0
  -27.4510    4.8180   -4.4220 C   0  0  0  0  0  0  0  0  0  0  0  0
  -24.3480    2.0010   -5.1880 C   0  0  0  0  0  0  0  0  0  0  0  0
  -25.4370    2.9890   -4.9240 C   0  0  0  0  0  0  0  0  0  0  0  0
  -25.1750    4.3400   -4.9240 C   0  0  0  0  0  0  0  0  0  0  0  0
  -26.1720    5.2580   -4.6750 C   0  0  0  0  0  0  0  0  0  0  0  0
  -26.9190    1.1540   -4.6900 N   0  0  0  0  0  0  0  0  0  0  0  0
  -28.1510    0.6940   -4.0950 C   0  0  1  0  0  0  0  0  0  0  0  0
  -29.2800    0.5610   -5.0980 C   0  0  1  0  0  0  0  0  0  0  0  0
  -30.3150    1.4080   -4.6490 O   0  0  0  0  0  0  0  0  0  0  0  0
  -28.9270    0.9130   -6.5280 C   0  0  0  0  0  0  0  0  0  0  0  0
  -29.7910   -0.8520   -5.0440 C   0  0  0  0  0  0  0  0  0  0  0  0
  -29.1050   -1.5250   -3.8860 C   0  0  0  0  0  0  0  0  0  0  0  0
  -27.8950   -0.6920   -3.5470 C   0  0  0  0  0  0  0  0  0  0  0  0
  -23.5750    4.8970   -5.2360 Cl  0  0  0  0  0  0  0  0  0  0  0  0
  -25.8740    6.6540   -4.6850 C   0  0  0  0  0  0  0  0  0  0  0  0
  -25.6650    7.8000   -4.7310 N   0  0  0  0  0  0  0  0  0  0  0  0
  2  1  2  0  0  0  0
  3  1  1  0  0  0  0
  4  5  1  0  0  0  0
  5  6  2  0  0  0  0
  5  2  1  0  0  0  0
  6  7  1  0  0  0  0
  7  3  2  0  0  0  0
  8  2  1  0  0  0  0
  9  8  1  6  0  0  0
  9 15  1  0  0  0  0
 10 12  1  6  0  0  0
 10 13  1  0  0  0  0
 10 11  1  0  0  0  0
 10  9  1  0  0  0  0
 13 14  1  0  0  0  0
 14 15  1  0  0  0  0
 16  6  1  0  0  0  0
 17  7  1  0  0  0  0
 18 17  3  0  0  0  0
M  END
