ligand_pdbs\5CT.pdb
 OpenBabel06092512053D

 15 14  0  0  1  0  0  0  0  0999 V2000
   53.3660   64.3440  815.4750 C   0  0  0  0  0  0  0  0  0  0  0  0
   52.5260   64.0210  814.2190 C   0  0  0  0  0  0  0  0  0  0  0  0
   51.9230   65.2780  813.5340 C   0  0  0  0  0  0  0  0  0  0  0  0
   51.4030   64.9040  812.2310 N   0  0  0  0  0  0  0  0  0  0  0  0
   50.0530   65.4230  812.0700 C   0  0  0  0  0  0  0  0  0  0  0  0
   49.3910   64.7770  810.8590 C   0  0  2  0  0  0  0  0  0  0  0  0
   48.1170   64.0600  811.3030 C   0  0  0  0  0  0  0  0  0  0  0  0
   46.8820   64.9750  811.2750 C   0  0  0  0  0  0  0  0  0  0  0  0
   45.7390   64.2570  810.7900 N   0  0  0  0  0  0  0  0  0  0  0  0
   50.2780   63.8600  810.2940 O   0  0  0  0  0  0  0  0  0  0  0  0
   52.6840   65.3500  816.4260 C   0  0  0  0  0  0  0  0  0  0  0  0
   52.7730   64.9360  817.9030 C   0  0  1  0  0  0  0  0  0  0  0  0
   54.1770   64.6040  818.2840 C   0  0  0  0  0  0  0  0  0  0  0  0
   54.5740   63.4130  818.2890 O   0  0  0  0  0  0  0  0  0  0  0  0
   52.3690   66.0060  818.7480 N   0  0  0  0  0  0  0  0  0  0  0  0
  1 11  1  0  0  0  0
  2  1  1  0  0  0  0
  3  2  1  0  0  0  0
  4  3  1  0  0  0  0
  5  4  1  0  0  0  0
  6 10  1  1  0  0  0
  6  7  1  0  0  0  0
  6  5  1  0  0  0  0
  8  7  1  0  0  0  0
  9  8  1  0  0  0  0
 11 12  1  0  0  0  0
 12 13  1  0  0  0  0
 12 15  1  1  0  0  0
 13 14  2  0  0  0  0
M  END
