ligand_pdbs\5QJ.pdb
 OpenBabel06092512053D

 31 35  0  0  1  0  0  0  0  0999 V2000
   23.0450  -44.7790  -10.5560 C   0  0  0  0  0  0  0  0  0  0  0  0
   23.5970  -43.4980   -9.9310 C   0  0  0  0  0  0  0  0  0  0  0  0
   23.4050  -43.4590   -8.5230 C   0  0  0  0  0  0  0  0  0  0  0  0
   24.1290  -42.5030   -7.7890 C   0  0  0  0  0  0  0  0  0  0  0  0
   23.9900  -42.4350   -6.3990 C   0  0  0  0  0  0  0  0  0  0  0  0
   23.1030  -43.2960   -5.7200 C   0  0  0  0  0  0  0  0  0  0  0  0
   22.3560  -44.2390   -6.4400 C   0  0  0  0  0  0  0  0  0  0  0  0
   22.5050  -44.3240   -7.8340 C   0  0  0  0  0  0  0  0  0  0  0  0
   21.7670  -45.2950   -8.4910 C   0  0  0  0  0  0  0  0  0  0  0  0
   21.7500  -45.1350   -9.9520 N   0  0  0  0  0  0  0  0  0  0  0  0
   21.2400  -46.3960  -10.5040 C   0  0  0  0  0  0  0  0  0  0  0  0
   19.7510  -46.5510  -10.1110 C   0  0  1  0  0  0  0  0  0  0  0  0
   19.0710  -45.3510  -10.3820 O   0  0  0  0  0  0  0  0  0  0  0  0
   19.0430  -47.6270  -10.9100 C   0  0  0  0  0  0  0  0  0  0  0  0
   19.7490  -48.8950  -10.7580 N   0  0  0  0  0  0  0  0  0  0  0  0
   19.6820  -49.7180   -9.7160 C   0  0  0  0  0  0  0  0  0  0  0  0
   20.8900  -50.0620   -9.1130 C   0  0  0  0  0  0  0  0  0  0  0  0
   18.5090  -50.2460   -9.2830 N   0  0  0  0  0  0  0  0  0  0  0  0
   18.5050  -51.1550   -8.1900 C   0  0  0  0  0  0  0  0  0  0  0  0
   19.7230  -51.4930   -7.5740 C   0  0  0  0  0  0  0  0  0  0  0  0
   20.9380  -50.9400   -8.0290 C   0  0  0  0  0  0  0  0  0  0  0  0
   22.1790  -51.2680   -7.4330 C   0  0  1  0  0  0  0  0  0  0  0  0
   23.2010  -51.9350   -8.1450 C   0  0  0  0  0  0  0  0  0  0  0  0
   24.3710  -52.2380   -7.5480 C   0  0  0  0  0  0  0  0  0  0  0  0
   25.4790  -52.8570   -7.9870 N   0  0  0  0  0  0  0  0  0  0  0  0
   25.8020  -53.4430   -9.3170 C   0  0  0  0  0  0  0  0  0  0  0  0
   26.3540  -52.9110   -6.9910 C   0  0  0  0  0  0  0  0  0  0  0  0
   25.8020  -52.3270   -5.9300 N   0  0  0  0  0  0  0  0  0  0  0  0
   24.5890  -51.9110   -6.2570 C   0  0  0  0  0  0  0  0  0  0  0  0
   23.6700  -51.2740   -5.5250 C   0  0  0  0  0  0  0  0  0  0  0  0
   22.4320  -50.9320   -6.0970 C   0  0  0  0  0  0  0  0  0  0  0  0
  1 10  1  0  0  0  0
  1  2  1  0  0  0  0
  2  3  1  0  0  0  0
  3  8  2  0  0  0  0
  3  4  1  0  0  0  0
  4  5  2  0  0  0  0
  5  6  1  0  0  0  0
  7  6  2  0  0  0  0
  8  7  1  0  0  0  0
  9  8  1  0  0  0  0
 10  9  1  0  0  0  0
 11 12  1  0  0  0  0
 11 10  1  0  0  0  0
 12 13  1  6  0  0  0
 14 15  1  0  0  0  0
 14 12  1  0  0  0  0
 15 16  1  0  0  0  0
 16 18  2  0  0  0  0
 16 17  1  0  0  0  0
 17 21  2  0  0  0  0
 18 19  1  0  0  0  0
 19 20  2  0  0  0  0
 21 20  1  0  0  0  0
 22 21  1  6  0  0  0
 22 31  1  0  0  0  0
 23 24  2  0  0  0  0
 23 22  1  0  0  0  0
 24 29  1  0  0  0  0
 25 24  1  0  0  0  0
 25 27  1  0  0  0  0
 26 25  1  0  0  0  0
 27 28  1  0  0  0  0
 29 28  2  0  0  0  0
 29 30  1  0  0  0  0
 31 30  2  0  0  0  0
M  END
