ligand_pdbs\5QK.pdb
 OpenBabel06092512053D

 29 32  0  0  1  0  0  0  0  0999 V2000
   22.7280  -44.7520  -10.7420 C   0  0  0  0  0  0  0  0  0  0  0  0
   23.1200  -43.3720  -10.2370 C   0  0  0  0  0  0  0  0  0  0  0  0
   23.0700  -43.3370   -8.8340 C   0  0  0  0  0  0  0  0  0  0  0  0
   23.7980  -42.3410   -8.1640 C   0  0  0  0  0  0  0  0  0  0  0  0
   23.7710  -42.2820   -6.7720 C   0  0  0  0  0  0  0  0  0  0  0  0
   23.0130  -43.1980   -6.0400 C   0  0  0  0  0  0  0  0  0  0  0  0
   22.2860  -44.1970   -6.6860 C   0  0  0  0  0  0  0  0  0  0  0  0
   22.3100  -44.2730   -8.0840 C   0  0  0  0  0  0  0  0  0  0  0  0
   21.5630  -45.2920   -8.6820 C   0  0  0  0  0  0  0  0  0  0  0  0
   21.4620  -45.2330  -10.1520 N   0  0  0  0  0  0  0  0  0  0  0  0
   21.1770  -46.5980  -10.6690 C   0  0  0  0  0  0  0  0  0  0  0  0
   19.6720  -46.8660  -11.0230 C   0  0  2  0  0  0  0  0  0  0  0  0
   18.8640  -46.0290  -10.2070 O   0  0  0  0  0  0  0  0  0  0  0  0
   19.2460  -48.3600  -10.8680 C   0  0  0  0  0  0  0  0  0  0  0  0
   20.4180  -49.2340  -10.5810 N   0  0  0  0  0  0  0  0  0  0  0  0
   21.2910  -49.7000  -11.5430 C   0  0  0  0  0  0  0  0  0  0  0  0
   21.2020  -49.4980  -12.7610 O   0  0  0  0  0  0  0  0  0  0  0  0
   22.4660  -50.5530  -11.0340 C   0  0  0  0  0  0  0  0  0  0  0  0
   22.1310  -51.2050   -9.7940 O   0  0  0  0  0  0  0  0  0  0  0  0
   23.2530  -51.6650   -9.1960 C   0  0  0  0  0  0  0  0  0  0  0  0
   23.3530  -51.4600   -7.8130 C   0  0  0  0  0  0  0  0  0  0  0  0
   22.3760  -50.8250   -7.1220 N   0  0  0  0  0  0  0  0  0  0  0  0
   22.5020  -50.6130   -5.7230 C   0  0  0  0  0  0  0  0  0  0  0  0
   23.6400  -51.0620   -5.0430 C   0  0  0  0  0  0  0  0  0  0  0  0
   24.6430  -51.7190   -5.7600 C   0  0  0  0  0  0  0  0  0  0  0  0
   24.4990  -51.9170   -7.1400 C   0  0  0  0  0  0  0  0  0  0  0  0
   25.4990  -52.5700   -7.8680 C   0  0  0  0  0  0  0  0  0  0  0  0
   25.3800  -52.7710   -9.2470 C   0  0  0  0  0  0  0  0  0  0  0  0
   24.2520  -52.3170   -9.9220 C   0  0  0  0  0  0  0  0  0  0  0  0
  1  2  1  0  0  0  0
  1 10  1  0  0  0  0
  2  3  1  0  0  0  0
  3  4  2  0  0  0  0
  3  8  1  0  0  0  0
  4  5  1  0  0  0  0
  5  6  2  0  0  0  0
  7  6  1  0  0  0  0
  8  7  2  0  0  0  0
  9  8  1  0  0  0  0
 10  9  1  0  0  0  0
 11 10  1  0  0  0  0
 12 14  1  0  0  0  0
 12 11  1  0  0  0  0
 12 13  1  1  0  0  0
 14 15  1  0  0  0  0
 16 18  1  0  0  0  0
 16 15  1  0  0  0  0
 17 16  2  0  0  0  0
 18 19  1  0  0  0  0
 19 20  1  0  0  0  0
 20 21  1  0  0  0  0
 21 26  1  0  0  0  0
 21 22  2  0  0  0  0
 22 23  1  0  0  0  0
 23 24  2  0  0  0  0
 25 24  1  0  0  0  0
 26 25  2  0  0  0  0
 27 26  1  0  0  0  0
 28 27  2  0  0  0  0
 29 28  1  0  0  0  0
 29 20  2  0  0  0  0
M  END
