ligand_pdbs\6L8.pdb
 OpenBabel06092512053D

 30 32  0  0  1  0  0  0  0  0999 V2000
  -35.1440   70.1240   26.7210 C   0  0  0  0  0  0  0  0  0  0  0  0
  -33.7910   69.8300   26.7740 C   0  0  0  0  0  0  0  0  0  0  0  0
  -32.8910   70.7650   27.2720 C   0  0  0  0  0  0  0  0  0  0  0  0
  -33.3420   71.9930   27.7260 C   0  0  0  0  0  0  0  0  0  0  0  0
  -34.6990   72.2940   27.6720 C   0  0  0  0  0  0  0  0  0  0  0  0
  -35.6030   71.3520   27.1700 C   0  0  0  0  0  0  0  0  0  0  0  0
  -37.0710   71.6730   27.1010 C   0  0  0  0  0  0  0  0  0  0  0  0
  -33.3120   68.4970   26.2830 C   0  0  0  0  0  0  0  0  0  0  0  0
  -34.2960   67.6140   26.2950 F   0  0  0  0  0  0  0  0  0  0  0  0
  -32.8840   68.6220   25.0510 F   0  0  0  0  0  0  0  0  0  0  0  0
  -32.3010   68.0910   27.0210 F   0  0  0  0  0  0  0  0  0  0  0  0
  -37.4560   71.9710   28.3150 F   0  0  0  0  0  0  0  0  0  0  0  0
  -37.8510   70.6790   26.6870 F   0  0  0  0  0  0  0  0  0  0  0  0
  -37.1960   72.7110   26.2930 F   0  0  0  0  0  0  0  0  0  0  0  0
  -32.3560   72.9730   28.2530 C   0  0  0  0  0  0  0  0  0  0  0  0
  -31.0040   72.8170   28.3070 N   0  0  0  0  0  0  0  0  0  0  0  0
  -30.4370   73.9150   28.8480 C   0  0  0  0  0  0  0  0  0  0  0  0
  -31.4410   74.7450   29.1150 N   0  0  0  0  0  0  0  0  0  0  0  0
  -32.6670   74.1770   28.7550 N   0  0  0  0  0  0  0  0  0  0  0  0
  -31.5270   76.1040   29.7250 C   0  0  0  0  0  0  0  0  0  0  0  0
  -30.9580   77.2210   28.8340 C   0  0  1  0  0  0  0  0  0  0  0  0
  -31.1000   76.8750   27.3960 C   0  0  0  0  0  0  0  0  0  0  0  0
  -29.9490   76.6290   26.6550 C   0  0  0  0  0  0  0  0  0  0  0  0
  -30.0810   76.3220   25.3560 N   0  0  0  0  0  0  0  0  0  0  0  0
  -31.2910   76.2530   24.7640 C   0  0  0  0  0  0  0  0  0  0  0  0
  -32.4140   76.4850   25.4590 N   0  0  0  0  0  0  0  0  0  0  0  0
  -32.3490   76.7950   26.7630 C   0  0  0  0  0  0  0  0  0  0  0  0
  -31.6040   78.5770   29.0900 C   0  0  0  0  0  0  0  0  0  0  0  0
  -30.8650   79.5610   29.1530 O   0  0  0  0  0  0  0  0  0  0  0  0
  -32.9390   78.7260   29.2320 N   0  0  0  0  0  0  0  0  0  0  0  0
  1  2  2  0  0  0  0
  1  6  1  0  0  0  0
  2  3  1  0  0  0  0
  3  4  2  0  0  0  0
  4 15  1  0  0  0  0
  5  4  1  0  0  0  0
  6  5  2  0  0  0  0
  7  6  1  0  0  0  0
  7 12  1  0  0  0  0
  8  9  1  0  0  0  0
  8  2  1  0  0  0  0
  8 11  1  0  0  0  0
 10  8  1  0  0  0  0
 13  7  1  0  0  0  0
 14  7  1  0  0  0  0
 15 16  2  0  0  0  0
 15 19  2  0  0  0  0
 16 17  1  0  0  0  0
 17 18  1  0  0  0  0
 18 20  1  0  0  0  0
 19 18  1  0  0  0  0
 21 28  1  0  0  0  0
 21 20  1  1  0  0  0
 22 21  1  0  0  0  0
 23 22  2  0  0  0  0
 24 23  1  0  0  0  0
 25 24  2  0  0  0  0
 25 26  1  0  0  0  0
 26 27  2  0  0  0  0
 27 22  1  0  0  0  0
 28 29  2  0  0  0  0
 28 30  1  0  0  0  0
M  END
