ligand_pdbs\6ZV.pdb
 OpenBabel06092512053D

 37 41  0  0  1  0  0  0  0  0999 V2000
  -58.1510    2.1710  -42.1240 C   0  0  0  0  0  0  0  0  0  0  0  0
  -52.4730    7.5330  -49.4930 C   0  0  0  0  0  0  0  0  0  0  0  0
  -59.4520    2.2880  -41.3490 C   0  0  0  0  0  0  0  0  0  0  0  0
  -52.7990    9.9350  -49.0520 C   0  0  0  0  0  0  0  0  0  0  0  0
  -51.9880   10.1500  -50.1950 C   0  0  0  0  0  0  0  0  0  0  0  0
  -51.4620    9.0780  -50.9370 C   0  0  0  0  0  0  0  0  0  0  0  0
  -58.5150    2.2500  -43.5640 N   0  0  0  0  0  0  0  0  0  0  0  0
  -53.8930    5.5530  -45.5010 C   0  0  0  0  0  0  0  0  0  0  0  0
  -53.4870    6.2370  -46.6530 C   0  0  0  0  0  0  0  0  0  0  0  0
  -53.8460   10.9110  -46.9360 C   0  0  0  0  0  0  0  0  0  0  0  0
  -53.4730   12.5640  -48.6810 C   0  0  0  0  0  0  0  0  0  0  0  0
  -53.6800    3.4720  -46.6820 C   0  0  0  0  0  0  0  0  0  0  0  0
  -53.3780   11.1700  -48.2240 C   0  0  0  0  0  0  0  0  0  0  0  0
  -53.9970    4.1420  -45.4860 C   0  0  0  0  0  0  0  0  0  0  0  0
  -54.4740   13.2900  -46.5440 C   0  0  0  0  0  0  0  0  0  0  0  0
  -54.3790   11.9870  -46.1360 C   0  0  0  0  0  0  0  0  0  0  0  0
  -54.0060   13.5500  -47.8390 C   0  0  1  0  0  0  0  0  0  0  0  0
  -53.1730    5.4940  -47.8670 C   0  0  0  0  0  0  0  0  0  0  0  0
  -55.3040   13.2750  -44.4660 C   0  0  0  0  0  0  0  0  0  0  0  0
  -56.1790    1.6370  -43.9760 C   0  0  0  0  0  0  0  0  0  0  0  0
  -56.6910    3.9410  -43.8280 C   0  0  0  0  0  0  0  0  0  0  0  0
  -57.6370    1.3060  -44.2760 C   0  0  0  0  0  0  0  0  0  0  0  0
  -58.1900    3.6280  -43.9700 C   0  0  0  0  0  0  0  0  0  0  0  0
  -55.8960   13.5270  -43.1170 C   0  0  0  0  0  0  0  0  0  0  0  0
  -55.9320    9.7500  -44.6270 C   0  0  0  0  0  0  0  0  0  0  0  0
  -53.5790   10.3000  -43.6970 C   0  0  0  0  0  0  0  0  0  0  0  0
  -54.4320    3.2980  -44.3050 C   0  0  0  0  0  0  0  0  0  0  0  0
  -54.9990   10.7920  -43.9920 C   0  0  0  0  0  0  0  0  0  0  0  0
  -53.2800    4.1280  -47.8180 N   0  0  0  0  0  0  0  0  0  0  0  0
  -51.6950    7.7850  -50.6010 N   0  0  0  0  0  0  0  0  0  0  0  0
  -55.0540   14.1600  -45.5260 N   0  0  0  0  0  4  0  0  0  0  0  0
  -53.0240    8.6090  -48.7180 N   0  0  0  0  0  4  0  0  0  0  0  0
  -54.8890   11.9850  -44.8760 N   0  0  0  0  0  0  0  0  0  0  0  0
  -55.8640    2.9650  -44.5520 N   0  0  0  0  0  0  0  0  0  0  0  0
  -52.7210    6.1120  -49.1540 N   0  0  0  0  0  0  0  0  0  0  0  0
  -54.1150   14.8950  -48.2260 F   0  0  0  0  0  0  0  0  0  0  0  0
  -51.6770   11.4110  -50.6420 F   0  0  0  0  0  0  0  0  0  0  0  0
  1  3  1  0  0  0  0
  2 35  1  0  0  0  0
  2 32  2  0  0  0  0
  4 32  2  0  0  0  0
  4 13  1  0  0  0  0
  5  4  1  0  0  0  0
  6 30  1  0  0  0  0
  6  5  2  0  0  0  0
  7  1  1  0  0  0  0
  8 14  1  0  0  0  0
  9  8  2  0  0  0  0
 10 16  2  0  0  0  0
 11 13  2  0  0  0  0
 11 17  1  0  0  0  0
 12 14  2  0  0  0  0
 13 10  1  0  0  0  0
 14 27  1  0  0  0  0
 15 16  1  0  0  0  0
 15 31  2  0  0  0  0
 16 33  1  0  0  0  0
 17 36  1  1  0  0  0
 17 15  1  0  0  0  0
 18 29  2  0  0  0  0
 18  9  1  0  0  0  0
 19 24  1  0  0  0  0
 22 20  1  0  0  0  0
 22  7  1  0  0  0  0
 23 21  1  0  0  0  0
 23  7  1  0  0  0  0
 25 28  1  0  0  0  0
 28 26  1  0  0  0  0
 29 12  1  0  0  0  0
 30  2  2  0  0  0  0
 31 19  2  0  0  0  0
 33 19  1  0  0  0  0
 33 28  1  0  0  0  0
 34 27  1  0  0  0  0
 34 20  1  0  0  0  0
 34 21  1  0  0  0  0
 35 18  1  0  0  0  0
 37  5  1  0  0  0  0
M  END
