ligand_pdbs\77T.pdb
 OpenBabel06092512053D

 18 19  0  0  1  0  0  0  0  0999 V2000
   28.3180    1.9120    5.1520 C   0  0  0  0  0  0  0  0  0  0  0  0
   28.4870    0.4570    5.6710 C   0  0  0  0  0  0  0  0  0  0  0  0
   27.5730   -0.3730    4.7380 C   0  0  1  0  0  0  0  0  0  0  0  0
   27.0420   -1.6610    5.3740 C   0  0  0  0  0  0  0  0  0  0  0  0
   26.3330    3.1140    4.3280 C   0  0  0  0  0  0  0  0  0  0  0  0
   25.3020    5.7250    4.2170 C   0  0  0  0  0  0  0  0  0  0  0  0
   25.6360    0.1510    3.2710 C   0  0  0  0  0  0  0  0  0  0  0  0
   26.4070    0.5910    4.5120 C   0  0  2  0  0  0  0  0  0  0  0  0
   27.0640    1.8970    4.3300 N   0  0  0  0  0  0  0  0  0  0  0  0
   28.2730   -0.6710    3.5300 O   0  0  0  0  0  0  0  0  0  0  0  0
   27.1550    4.2180    4.0610 C   0  0  0  0  0  0  0  0  0  0  0  0
   26.6640    5.4920    4.0120 C   0  0  0  0  0  0  0  0  0  0  0  0
   24.8910    7.0900    4.1310 C   0  0  0  0  0  0  0  0  0  0  0  0
   24.5450    8.1670    4.0720 N   0  0  0  0  0  0  0  0  0  0  0  0
   24.4190    4.6470    4.4860 C   0  0  0  0  0  0  0  0  0  0  0  0
   23.0840    4.8750    4.6840 F   0  0  0  0  0  0  0  0  0  0  0  0
   24.9320    3.3410    4.5400 C   0  0  0  0  0  0  0  0  0  0  0  0
   23.9110    2.2680    4.8350 C   0  0  0  0  0  0  0  0  0  0  0  0
  1  2  1  0  0  0  0
  3  4  1  1  0  0  0
  3  2  1  0  0  0  0
  5  9  1  0  0  0  0
  5 17  1  0  0  0  0
  6 15  1  0  0  0  0
  8  7  1  6  0  0  0
  8  3  1  0  0  0  0
  9  8  1  0  0  0  0
  9  1  1  0  0  0  0
 10  3  1  0  0  0  0
 11  5  2  0  0  0  0
 12 11  1  0  0  0  0
 12  6  2  0  0  0  0
 13  6  1  0  0  0  0
 14 13  3  0  0  0  0
 15 17  2  0  0  0  0
 15 16  1  0  0  0  0
 17 18  1  0  0  0  0
M  END
