ligand_pdbs\77U.pdb
 OpenBabel06092512053D

 17 18  0  0  1  0  0  0  0  0999 V2000
   28.8940   -0.3170    3.5550 C   0  0  1  0  0  0  0  0  0  0  0  0
   27.5090   -0.9340    3.2740 C   0  0  0  0  0  0  0  0  0  0  0  0
   26.6140    0.3120    3.2090 C   0  0  0  0  0  0  0  0  0  0  0  0
   26.6520    2.4860    4.2410 C   0  0  0  0  0  0  0  0  0  0  0  0
   25.7560    5.1260    4.1250 C   0  0  0  0  0  0  0  0  0  0  0  0
   29.1250    0.9990    5.7620 C   0  0  0  0  0  0  0  0  0  0  0  0
   28.6110    1.0100    4.3190 C   0  0  2  0  0  0  0  0  0  0  0  0
   29.6900   -1.2430    4.3010 O   0  0  0  0  0  0  0  0  0  0  0  0
   27.1220    1.1670    4.3170 N   0  0  0  0  0  0  0  0  0  0  0  0
   27.5530    3.5410    4.0310 C   0  0  0  0  0  0  0  0  0  0  0  0
   27.1220    4.8470    3.9700 C   0  0  0  0  0  0  0  0  0  0  0  0
   25.3030    6.4840    4.0520 C   0  0  0  0  0  0  0  0  0  0  0  0
   25.0360    7.5900    3.9820 N   0  0  0  0  0  0  0  0  0  0  0  0
   24.8390    4.0750    4.3340 C   0  0  0  0  0  0  0  0  0  0  0  0
   23.1400    4.3970    4.5220 Cl  0  0  0  0  0  0  0  0  0  0  0  0
   25.2820    2.7690    4.3960 C   0  0  0  0  0  0  0  0  0  0  0  0
   24.2580    1.6860    4.6370 C   0  0  0  0  0  0  0  0  0  0  0  0
  1  8  1  1  0  0  0
  1  7  1  0  0  0  0
  2  1  1  0  0  0  0
  3  2  1  0  0  0  0
  3  9  1  0  0  0  0
  4  9  1  0  0  0  0
  4 16  1  0  0  0  0
  5 14  1  0  0  0  0
  7  6  1  1  0  0  0
  9  7  1  0  0  0  0
 10  4  2  0  0  0  0
 11 10  1  0  0  0  0
 11  5  2  0  0  0  0
 12  5  1  0  0  0  0
 13 12  3  0  0  0  0
 14 16  2  0  0  0  0
 14 15  1  0  0  0  0
 16 17  1  0  0  0  0
M  END
