ligand_pdbs\81X.pdb
 OpenBabel06092512053D

 23 24  0  0  0  0  0  0  0  0999 V2000
  -26.4840  -42.0430  -10.6870 N   0  0  0  0  0  0  0  0  0  0  0  0
  -28.5670  -43.0350  -10.1180 C   0  0  0  0  0  0  0  0  0  0  0  0
  -29.9800  -42.8190   -9.6580 C   0  0  0  0  0  0  0  0  0  0  0  0
  -28.0180  -44.3800  -10.4050 C   0  0  0  0  0  0  0  0  0  0  0  0
  -28.2000  -46.7930  -10.5530 C   0  0  0  0  0  0  0  0  0  0  0  0
  -26.6430  -44.4700  -10.8420 C   0  0  0  0  0  0  0  0  0  0  0  0
  -26.8700  -46.8780  -10.9770 C   0  0  0  0  0  0  0  0  0  0  0  0
  -26.0910  -45.7370  -11.1230 C   0  0  0  0  0  0  0  0  0  0  0  0
  -25.8670  -43.2140  -10.9780 C   0  0  0  0  0  0  0  0  0  0  0  0
  -28.7740  -45.5710  -10.2700 C   0  0  0  0  0  0  0  0  0  0  0  0
  -27.8140  -41.9780  -10.2660 N   0  0  0  0  0  0  0  0  0  0  0  0
  -30.2290  -41.3940   -9.6880 N   0  0  0  0  0  4  0  0  0  0  0  0
  -24.7060  -43.2050  -11.3430 O   0  0  0  0  0  0  0  0  0  0  0  0
  -25.9660  -41.1910  -10.7760 H   0  0  0  0  0  0  0  0  0  0  0  0
  -30.1000  -43.1920   -8.6480 H   0  0  0  0  0  0  0  0  0  0  0  0
  -30.6670  -43.3270  -10.3240 H   0  0  0  0  0  0  0  0  0  0  0  0
  -28.7860  -47.6970  -10.4460 H   0  0  0  0  0  0  0  0  0  0  0  0
  -26.4400  -47.8480  -11.1940 H   0  0  0  0  0  0  0  0  0  0  0  0
  -25.0630  -45.8200  -11.4520 H   0  0  0  0  0  0  0  0  0  0  0  0
  -29.8050  -45.5220   -9.9430 H   0  0  0  0  0  0  0  0  0  0  0  0
  -29.5940  -40.9320   -9.0670 H   0  0  0  0  0  0  0  0  0  0  0  0
  -31.1700  -41.2140   -9.4000 H   0  0  0  0  0  0  0  0  0  0  0  0
  -30.0930  -41.0520  -10.6190 H   0  0  0  0  0  0  0  0  0  0  0  0
  1 11  1  0  0  0  0
  2  3  1  0  0  0  0
  3 15  1  0  0  0  0
  4 10  1  0  0  0  0
  4  2  1  0  0  0  0
  5 17  1  0  0  0  0
  5 10  2  0  0  0  0
  6  4  2  0  0  0  0
  7  5  1  0  0  0  0
  8  7  2  0  0  0  0
  8  6  1  0  0  0  0
  9  6  1  0  0  0  0
  9  1  1  0  0  0  0
 10 20  1  0  0  0  0
 11  2  2  0  0  0  0
 12  3  1  0  0  0  0
 12 22  1  0  0  0  0
 12 21  1  0  0  0  0
 13  9  2  0  0  0  0
 14  1  1  0  0  0  0
 16  3  1  0  0  0  0
 18  7  1  0  0  0  0
 19  8  1  0  0  0  0
 23 12  1  0  0  0  0
M  END
