ligand_pdbs\85E.pdb
 OpenBabel06092512053D

 50 54  0  0  0  0  0  0  0  0999 V2000
  -32.4380  -50.0360   -9.3780 N   0  0  0  0  0  0  0  0  0  0  0  0
  -33.5640  -49.3660   -9.6950 N   0  0  0  0  0  0  0  0  0  0  0  0
  -26.5230  -51.9000   -7.8770 C   0  0  0  0  0  0  0  0  0  0  0  0
  -26.0040  -52.4450  -10.1670 C   0  0  0  0  0  0  0  0  0  0  0  0
  -28.0250  -51.1940   -9.6640 C   0  0  0  0  0  0  0  0  0  0  0  0
  -29.8130  -50.4670  -12.5830 N   0  0  0  0  0  0  0  0  0  0  0  0
  -29.7030  -50.0150   -7.8130 C   0  0  0  0  0  0  0  0  0  0  0  0
  -27.3800  -43.3750  -11.3410 O   0  0  0  0  0  0  0  0  0  0  0  0
  -28.5740  -50.6380   -7.3600 C   0  0  0  0  0  0  0  0  0  0  0  0
  -30.5410  -49.4370   -6.8780 F   0  0  0  0  0  0  0  0  0  0  0  0
  -27.7020  -51.2360   -8.2900 C   0  0  0  0  0  0  0  0  0  0  0  0
  -25.6800  -52.4820   -8.7970 C   0  0  0  0  0  0  0  0  0  0  0  0
  -27.1440  -51.8130  -10.5900 C   0  0  0  0  0  0  0  0  0  0  0  0
  -29.2180  -50.5510  -10.0870 C   0  0  0  0  0  0  0  0  0  0  0  0
  -29.5310  -50.5060  -11.4840 C   0  0  0  0  0  0  0  0  0  0  0  0
  -30.0550  -49.9460   -9.1870 C   0  0  0  0  0  0  0  0  0  0  0  0
  -31.3050  -49.3170   -9.5430 C   0  0  0  0  0  0  0  0  0  0  0  0
  -32.5170  -51.4000   -8.8770 C   0  0  0  0  0  0  0  0  0  0  0  0
  -33.1250  -48.1940  -10.0810 C   0  0  0  0  0  0  0  0  0  0  0  0
  -31.7210  -48.1010  -10.0310 C   0  0  0  0  0  0  0  0  0  0  0  0
  -30.8910  -46.9110  -10.3240 C   0  0  0  0  0  0  0  0  0  0  0  0
  -29.5470  -47.0110  -10.7330 C   0  0  0  0  0  0  0  0  0  0  0  0
  -28.7840  -45.8810  -10.9570 C   0  0  0  0  0  0  0  0  0  0  0  0
  -31.4210  -45.6360  -10.1050 C   0  0  0  0  0  0  0  0  0  0  0  0
  -31.1990  -43.1100  -10.0940 C   0  0  0  0  0  0  0  0  0  0  0  0
  -30.6710  -44.4620  -10.3150 C   0  0  0  0  0  0  0  0  0  0  0  0
  -32.6490  -42.9110   -9.6190 C   0  0  0  0  0  0  0  0  0  0  0  0
  -29.3360  -44.6070  -10.7560 C   0  0  0  0  0  0  0  0  0  0  0  0
  -28.5540  -43.4120  -10.9730 C   0  0  0  0  0  0  0  0  0  0  0  0
  -33.0730  -41.5110   -9.7700 N   0  0  0  0  0  4  0  0  0  0  0  0
  -30.4670  -42.0620  -10.3000 N   0  0  0  0  0  0  0  0  0  0  0  0
  -29.1610  -42.2010  -10.7550 N   0  0  0  0  0  0  0  0  0  0  0  0
  -26.2740  -51.9550   -6.8250 H   0  0  0  0  0  0  0  0  0  0  0  0
  -25.3530  -52.9170  -10.8930 H   0  0  0  0  0  0  0  0  0  0  0  0
  -28.3570  -50.6680   -6.2990 H   0  0  0  0  0  0  0  0  0  0  0  0
  -24.7700  -52.9680   -8.4670 H   0  0  0  0  0  0  0  0  0  0  0  0
  -27.3860  -51.7790  -11.6450 H   0  0  0  0  0  0  0  0  0  0  0  0
  -33.4840  -51.8200   -9.1230 H   0  0  0  0  0  0  0  0  0  0  0  0
  -32.3880  -51.3980   -7.8010 H   0  0  0  0  0  0  0  0  0  0  0  0
  -31.7370  -51.9980   -9.3320 H   0  0  0  0  0  0  0  0  0  0  0  0
  -33.7410  -47.3660  -10.4090 H   0  0  0  0  0  0  0  0  0  0  0  0
  -29.0990  -47.9870  -10.8760 H   0  0  0  0  0  0  0  0  0  0  0  0
  -27.7570  -45.9730  -11.2880 H   0  0  0  0  0  0  0  0  0  0  0  0
  -32.4420  -45.5280   -9.7630 H   0  0  0  0  0  0  0  0  0  0  0  0
  -32.7250  -43.1840   -8.5740 H   0  0  0  0  0  0  0  0  0  0  0  0
  -33.3090  -43.5370  -10.2050 H   0  0  0  0  0  0  0  0  0  0  0  0
  -32.4770  -40.9210   -9.2230 H   0  0  0  0  0  0  0  0  0  0  0  0
  -34.0180  -41.4130   -9.4570 H   0  0  0  0  0  0  0  0  0  0  0  0
  -33.0110  -41.2460  -10.7330 H   0  0  0  0  0  0  0  0  0  0  0  0
  -28.6080  -41.3880  -10.9420 H   0  0  0  0  0  0  0  0  0  0  0  0
  1 18  1  0  0  0  0
  2  1  1  0  0  0  0
  3 33  1  0  0  0  0
  4 12  1  0  0  0  0
  5 11  1  0  0  0  0
  6 15  3  0  0  0  0
  7  9  1  0  0  0  0
  7 10  1  0  0  0  0
  8 29  2  0  0  0  0
  9 35  1  0  0  0  0
 11  3  1  0  0  0  0
 11  9  2  0  0  0  0
 12 36  1  0  0  0  0
 12  3  2  0  0  0  0
 13  4  2  0  0  0  0
 13  5  1  0  0  0  0
 14  5  2  0  0  0  0
 14 16  1  0  0  0  0
 15 14  1  0  0  0  0
 16  7  2  0  0  0  0
 17  1  1  0  0  0  0
 17 16  1  0  0  0  0
 18 39  1  0  0  0  0
 19 20  1  0  0  0  0
 19  2  2  0  0  0  0
 20 17  2  0  0  0  0
 21 24  1  0  0  0  0
 21 20  1  0  0  0  0
 22 21  2  0  0  0  0
 23 28  2  0  0  0  0
 23 22  1  0  0  0  0
 24 44  1  0  0  0  0
 25 27  1  0  0  0  0
 26 24  2  0  0  0  0
 26 25  1  0  0  0  0
 27 45  1  0  0  0  0
 28 26  1  0  0  0  0
 29 28  1  0  0  0  0
 29 32  1  0  0  0  0
 30 27  1  0  0  0  0
 30 48  1  0  0  0  0
 30 47  1  0  0  0  0
 31 25  2  0  0  0  0
 32 31  1  0  0  0  0
 34  4  1  0  0  0  0
 37 13  1  0  0  0  0
 38 18  1  0  0  0  0
 40 18  1  0  0  0  0
 41 19  1  0  0  0  0
 42 22  1  0  0  0  0
 43 23  1  0  0  0  0
 46 27  1  0  0  0  0
 49 30  1  0  0  0  0
 50 32  1  0  0  0  0
M  END
