ligand_pdbs\97A.pdb
 OpenBabel06092512053D

 42 25  0  0  1  0  0  0  0  0999 V2000
   29.4740   -0.5640    3.2510 C   0  0  0  0  0  0  0  0  0  0  0  0
   29.5700   -0.4080    3.3550 C   0  0  0  0  0  0  0  0  0  0  0  0
   28.1420   -1.2740    3.5870 C   0  0  0  0  0  0  0  0  0  0  0  0
   28.1750   -1.0680    3.2410 C   0  0  0  0  0  0  0  0  0  0  0  0
   28.0350    3.4410    3.8630 C   0  0  0  0  0  0  0  0  0  0  0  0
   28.0490    3.5890    3.9660 C   0  0  0  0  0  0  0  0  0  0  0  0
   26.0870    4.8260    4.2000 C   0  0  0  0  0  0  0  0  0  0  0  0
   26.0870    4.9390    4.3150 C   0  0  0  0  0  0  0  0  0  0  0  0
   23.8280    3.7340    4.7170 C   0  0  0  0  0  0  0  0  0  0  0  0
   23.8070    3.8370    4.6300 C   0  0  0  0  0  0  0  0  0  0  0  0
   29.2930    1.6830    6.3910 C   0  0  0  0  0  0  0  0  0  0  0  0
   30.7690    0.8990    6.1740 C   0  0  0  0  0  0  0  0  0  0  0  0
   29.7600    0.5220    5.5120 C   0  0  0  0  0  0  0  0  0  0  0  0
   29.3730    0.4950    5.7040 C   0  0  0  0  0  0  0  0  0  0  0  0
   29.3070    0.7430    4.0640 C   0  0  0  0  0  0  0  0  0  0  0  0
   29.2470    0.8360    4.2190 C   0  0  0  0  0  0  0  0  0  0  0  0
   30.5790   -1.3630    3.6780 O   0  0  0  0  0  0  0  0  0  0  0  0
   30.4860   -1.2950    3.9990 O   0  0  0  0  0  0  0  0  0  0  0  0
   27.1870   -0.1070    3.6770 C   0  0  0  0  0  0  0  0  0  0  0  0
   27.2440    0.1220    3.3050 C   0  0  1  0  0  0  0  0  0  0  0  0
   25.9900   -0.2040    3.5190 O   0  0  0  0  0  0  0  0  0  0  0  0
   26.1020    0.1150    2.9100 O   0  0  0  0  0  0  0  0  0  0  0  0
   27.8630    1.0290    3.9690 N   0  0  0  0  0  0  0  0  0  0  0  0
   27.8620    1.1780    3.8720 N   0  0  0  0  0  0  0  0  0  0  0  0
   27.2670    2.2980    4.0740 C   0  0  0  0  0  0  0  0  0  0  0  0
   27.2670    2.4370    4.0410 C   0  0  0  0  0  0  0  0  0  0  0  0
   27.4570    4.6900    3.9330 C   0  0  0  0  0  0  0  0  0  0  0  0
   27.4700    4.8300    4.1070 C   0  0  0  0  0  0  0  0  0  0  0  0
   25.5370    6.1490    4.2570 C   0  0  0  0  0  0  0  0  0  0  0  0
   25.5150    6.2450    4.4570 C   0  0  0  0  0  0  0  0  0  0  0  0
   25.1140    7.2050    4.2990 N   0  0  0  0  0  0  0  0  0  0  0  0
   25.0890    7.2940    4.5650 N   0  0  0  0  0  0  0  0  0  0  0  0
   25.3060    3.6770    4.4060 C   0  0  0  0  0  0  0  0  0  0  0  0
   25.2970    3.7820    4.3890 C   0  0  0  0  0  0  0  0  0  0  0  0
   25.9060    2.4320    4.3390 C   0  0  0  0  0  0  0  0  0  0  0  0
   25.8960    2.5460    4.2510 C   0  0  0  0  0  0  0  0  0  0  0  0
   23.2000    2.6330    4.1510 F   0  0  0  0  0  0  0  0  0  0  0  0
   23.2760    2.5650    4.4890 F   0  0  0  0  0  0  0  0  0  0  0  0
   23.6400    3.6820    6.0970 F   0  0  0  0  0  0  0  0  0  0  0  0
   23.5430    4.2530    5.9310 F   0  0  0  0  0  0  0  0  0  0  0  0
   23.2180    4.8850    4.2290 F   0  0  0  0  0  0  0  0  0  0  0  0
   23.1660    4.7000    3.7480 F   0  0  0  0  0  0  0  0  0  0  0  0
  2 17  1  0  0  0  0
  2 15  2  0  0  0  0
  4  1  1  0  0  0  0
  4  3  1  0  0  0  0
  5 26  3  0  0  0  0
  7 34  2  0  0  0  0
 13 14  1  0  0  0  0
 13 12  2  0  0  0  0
 14 11  1  0  0  0  0
 16 13  1  0  0  0  0
 20 19  1  0  0  0  0
 20 23  1  1  0  0  0
 21 19  1  0  0  0  0
 22 20  1  0  0  0  0
 22 21  1  0  0  0  0
 23 16  1  0  0  0  0
 24 25  2  0  0  0  0
 25 35  1  0  0  0  0
 27  6  3  0  0  0  0
 28  7  1  0  0  0  0
 31 30  3  0  0  0  0
 36 33  3  0  0  0  0
 38  9  1  0  0  0  0
 40 39  1  0  0  0  0
 42 41  1  0  0  0  0
M  END
