ligand_pdbs\ACE.pdb
 OpenBabel06092512053D

  3  2  0  0  0  0  0  0  0  0999 V2000
  -26.3370  -52.7560   -7.1090 C   0  0  0  0  0  0  0  0  0  0  0  0
  -25.3570  -52.2110   -6.5130 O   0  0  0  0  0  0  0  0  0  0  0  0
  -27.3970  -53.4170   -6.2930 C   0  0  0  0  0  0  0  0  0  0  0  0
  1  2  2  0  0  0  0
  1  3  1  0  0  0  0
M  END
