ligand_pdbs\ADN.pdb
 OpenBabel06092512053D

 19 21  0  0  1  0  0  0  0  0999 V2000
  -31.7810  -39.7140   -6.3690 O   0  0  0  0  0  0  0  0  0  0  0  0
  -30.8550  -38.6240   -6.2770 C   0  0  0  0  0  0  0  0  0  0  0  0
  -30.8330  -37.9330   -4.9250 C   0  0  1  0  0  0  0  0  0  0  0  0
  -31.9430  -37.0080   -4.8010 O   0  0  0  0  0  0  0  0  0  0  0  0
  -30.9010  -38.8480   -3.7160 C   0  0  1  0  0  0  0  0  0  0  0  0
  -29.9130  -38.4160   -2.7950 O   0  0  0  0  0  0  0  0  0  0  0  0
  -32.3400  -38.6540   -3.2140 C   0  0  1  0  0  0  0  0  0  0  0  0
  -32.4260  -39.0160   -1.8380 O   0  0  0  0  0  0  0  0  0  0  0  0
  -32.5890  -37.1880   -3.5570 C   0  0  2  0  0  0  0  0  0  0  0  0
  -33.9950  -36.8440   -3.7510 N   0  0  0  0  0  0  0  0  0  0  0  0
  -34.9150  -37.6060   -4.4200 C   0  0  0  0  0  0  0  0  0  0  0  0
  -36.1240  -37.0980   -4.4370 N   0  0  0  0  0  0  0  0  0  0  0  0
  -35.9890  -35.9050   -3.7420 C   0  0  0  0  0  0  0  0  0  0  0  0
  -36.9160  -34.9060   -3.3840 C   0  0  0  0  0  0  0  0  0  0  0  0
  -38.1850  -34.8800   -3.8200 N   0  0  0  0  0  0  0  0  0  0  0  0
  -36.4730  -33.8670   -2.6380 N   0  0  0  0  0  0  0  0  0  0  0  0
  -35.1710  -33.8140   -2.3240 C   0  0  0  0  0  0  0  0  0  0  0  0
  -34.2030  -34.6880   -2.6210 N   0  0  0  0  0  0  0  0  0  0  0  0
  -34.6800  -35.7260   -3.3240 C   0  0  0  0  0  0  0  0  0  0  0  0
  1  2  1  0  0  0  0
  3  2  1  6  0  0  0
  3  4  1  0  0  0  0
  3  5  1  0  0  0  0
  4  9  1  0  0  0  0
  5  7  1  0  0  0  0
  5  6  1  1  0  0  0
  7  8  1  1  0  0  0
  9 10  1  6  0  0  0
  9  7  1  0  0  0  0
 10 19  1  0  0  0  0
 11 10  1  0  0  0  0
 12 11  1  0  0  0  0
 12 13  2  0  0  0  0
 13 14  1  0  0  0  0
 13 19  1  0  0  0  0
 14 16  2  0  0  0  0
 15 14  1  0  0  0  0
 16 17  1  0  0  0  0
 18 17  1  0  0  0  0
 19 18  2  0  0  0  0
M  END
