ligand_pdbs\AF3.pdb
 OpenBabel06092512053D

  4  3  0  0  0  0  0  0  0  0999 V2000
   -3.9580   -0.9160  -18.0520 Al  0  0  0  0  0  0  0  0  0  0  0  0
   -5.2590   -0.2740  -18.9200 F   0  0  0  0  0  0  0  0  0  0  0  0
   -3.4600   -0.4940  -16.4840 F   0  0  0  0  0  0  0  0  0  0  0  0
   -3.2020   -2.0260  -18.9600 F   0  0  0  0  0  0  0  0  0  0  0  0
  1  3  1  0  0  0  0
  2  1  1  0  0  0  0
  4  1  1  0  0  0  0
M  END
