ligand_pdbs\AV6.pdb
 OpenBabel06092512053D

 21 24  0  0  1  0  0  0  0  0999 V2000
   36.2180    7.8790   18.3740 C   0  0  2  0  0  0  0  0  0  0  0  0
   36.7990    9.0900   18.9480 C   0  0  0  0  0  0  0  0  0  0  0  0
   37.8270    9.7420   18.3180 C   0  0  0  0  0  0  0  0  0  0  0  0
   38.3090    9.2370   17.1260 C   0  0  0  0  0  0  0  0  0  0  0  0
   37.8020    8.0890   16.5360 C   0  0  0  0  0  0  0  0  0  0  0  0
   36.7570    7.3820   17.0950 C   0  0  0  0  0  0  0  0  0  0  0  0
   36.2160    6.2530   16.5130 C   0  0  0  0  0  0  0  0  0  0  0  0
   35.1810    5.6340   17.1940 C   0  0  0  0  0  0  0  0  0  0  0  0
   34.6390    6.0660   18.4070 C   0  0  0  0  0  0  0  0  0  0  0  0
   35.1240    7.1750   19.0490 C   0  0  0  0  0  0  0  0  0  0  0  0
   34.6580    7.6400   20.2060 N   0  0  0  0  0  4  0  0  0  0  0  0
   35.2290    8.8680   20.7600 C   0  0  0  0  0  0  0  0  0  0  0  0
   36.3210    9.5460   20.0800 N   0  0  0  0  0  4  0  0  0  0  0  0
   35.1250    9.2720   22.1570 C   0  0  0  0  0  0  0  0  0  0  0  0
   36.0870   10.1510   22.6860 C   0  0  0  0  0  0  0  0  0  0  0  0
   36.0150   10.5610   24.0110 C   0  0  0  0  0  0  0  0  0  0  0  0
   34.8950   10.0450   24.8040 C   0  0  0  0  0  0  0  0  0  0  0  0
   33.9740    9.2000   24.2240 C   0  0  0  0  0  0  0  0  0  0  0  0
   34.0800    8.8340   22.9060 C   0  0  0  0  0  0  0  0  0  0  0  0
   34.7290   10.3930   26.0940 O   0  0  0  0  0  0  0  0  0  0  0  0
   36.9390   11.3910   24.5560 O   0  0  0  0  0  0  0  0  0  0  0  0
  1  6  1  6  0  0  0
  1  2  1  0  0  0  0
  1 10  1  0  0  0  0
  2 13  2  0  0  0  0
  3  2  1  0  0  0  0
  4  3  2  0  0  0  0
  5  6  2  0  0  0  0
  5  4  1  0  0  0  0
  7  6  1  0  0  0  0
  7  8  1  0  0  0  0
  8  9  2  0  0  0  0
  9 10  1  0  0  0  0
 10 11  2  0  0  0  0
 11 12  2  0  0  0  0
 12 14  1  0  0  0  0
 13 12  2  0  0  0  0
 14 15  2  0  0  0  0
 14 19  1  0  0  0  0
 15 16  1  0  0  0  0
 16 21  1  0  0  0  0
 16 17  2  0  0  0  0
 17 20  1  0  0  0  0
 18 17  1  0  0  0  0
 19 18  2  0  0  0  0
M  END
