ligand_pdbs\CA4.pdb
 OpenBabel06092512053D

 29 33  0  0  1  0  0  0  0  0999 V2000
   25.3710    5.4860    4.3600 C   0  0  0  0  0  0  0  0  0  0  0  0
   27.7990    0.4200    3.9100 C   0  0  1  0  0  0  0  0  0  0  0  0
   26.0230    4.2600    4.4340 C   0  0  0  0  0  0  0  0  0  0  0  0
   25.2610    3.1080    4.6110 C   0  0  0  0  0  0  0  0  0  0  0  0
   29.5410    2.7440    3.9590 C   0  0  0  0  0  0  0  0  0  0  0  0
   25.8560    1.8540    4.7240 C   0  0  0  0  0  0  0  0  0  0  0  0
   27.3760    1.6800    4.6680 C   0  0  2  0  0  0  0  0  0  0  0  0
   28.0150    2.8790    3.9640 C   0  0  1  0  0  0  0  0  0  0  0  0
   27.5410    4.1740    4.6230 C   0  0  2  0  0  0  0  0  0  0  0  0
   29.9710    1.4620    3.2380 C   0  0  0  0  0  0  0  0  0  0  0  0
   29.3160    0.2570    3.9150 C   0  0  1  0  0  0  0  0  0  0  0  0
   26.0480    6.6800    4.1380 C   0  0  0  0  0  0  0  0  0  0  0  0
   27.7830    4.1280    6.1340 C   0  0  0  0  0  0  0  0  0  0  0  0
   28.3140    5.3730    4.0650 C   0  0  1  0  0  0  0  0  0  0  0  0
   27.9610    5.8950    2.6730 C   0  0  0  0  0  0  0  0  0  0  0  0
   27.5610    6.6960    3.9160 C   0  0  1  0  0  0  0  0  0  0  0  0
   25.4290    7.7430    4.1380 O   0  0  0  0  0  0  0  0  0  0  0  0
   23.5410    3.2460    4.7440 Cl  0  0  0  0  0  0  0  0  0  0  0  0
   29.8460    0.1050    5.3430 C   0  0  0  0  0  0  0  0  0  0  0  0
   27.3500   -0.9240    4.4870 C   0  0  0  0  0  0  0  0  0  0  0  0
   28.3530   -1.9110    3.8730 C   0  0  0  0  0  0  0  0  0  0  0  0
   29.3940   -1.0580    3.1380 C   0  0  2  0  0  0  0  0  0  0  0  0
   30.7950   -1.6720    3.1960 C   0  0  0  0  0  0  0  0  0  0  0  0
   31.1210   -2.7110    4.2700 C   0  0  0  0  0  0  0  0  0  0  0  0
   31.6470   -1.3520    2.3680 O   0  0  0  0  0  0  0  0  0  0  0  0
   28.9720   -0.8100    1.7920 O   0  0  0  0  0  0  0  0  0  0  0  0
   29.0160   -1.9120    0.9930 C   0  0  0  0  0  0  0  0  0  0  0  0
   28.6380   -1.7700   -0.4820 C   0  0  0  0  0  0  0  0  0  0  0  0
   29.3700   -3.0040    1.4370 O   0  0  0  0  0  0  0  0  0  0  0  0
  1  3  1  0  0  0  0
  2 11  1  0  0  0  0
  2 20  1  1  0  0  0
  2  7  1  0  0  0  0
  3  4  2  0  0  0  0
  3  9  1  0  0  0  0
  4  6  1  0  0  0  0
  4 18  1  0  0  0  0
  7  6  1  6  0  0  0
  8  5  1  1  0  0  0
  8  9  1  0  0  0  0
  8  7  1  0  0  0  0
  9 13  1  1  0  0  0
 10 11  1  0  0  0  0
 10  5  1  0  0  0  0
 11 19  1  1  0  0  0
 12 17  2  0  0  0  0
 12  1  1  0  0  0  0
 14 15  1  6  0  0  0
 14  9  1  0  0  0  0
 16 15  1  6  0  0  0
 16 14  1  0  0  0  0
 16 12  1  0  0  0  0
 21 20  1  0  0  0  0
 22 26  1  6  0  0  0
 22 23  1  0  0  0  0
 22 21  1  0  0  0  0
 22 11  1  0  0  0  0
 23 24  1  0  0  0  0
 25 23  2  0  0  0  0
 27 29  2  0  0  0  0
 27 26  1  0  0  0  0
 28 27  1  0  0  0  0
M  END
