ligand_pdbs\D29.pdb
 OpenBabel06092512053D

 23 23  0  0  0  0  0  0  0  0999 V2000
  -36.6460   70.6740   27.0130 F   0  0  0  0  0  0  0  0  0  0  0  0
  -36.0890   71.8490   27.1290 C   0  0  0  0  0  0  0  0  0  0  0  0
  -36.4630   72.3210   28.2980 F   0  0  0  0  0  0  0  0  0  0  0  0
  -36.3810   72.6380   26.1070 F   0  0  0  0  0  0  0  0  0  0  0  0
  -34.6230   71.7440   27.1070 C   0  0  0  0  0  0  0  0  0  0  0  0
  -34.0220   70.5810   26.6860 C   0  0  0  0  0  0  0  0  0  0  0  0
  -33.9150   72.8590   27.4820 C   0  0  0  0  0  0  0  0  0  0  0  0
  -32.5460   72.8130   27.4760 C   0  0  0  0  0  0  0  0  0  0  0  0
  -31.8920   71.6420   27.0500 C   0  0  0  0  0  0  0  0  0  0  0  0
  -32.6480   70.5190   26.6840 C   0  0  0  0  0  0  0  0  0  0  0  0
  -32.0150   69.2460   26.2160 C   0  0  0  0  0  0  0  0  0  0  0  0
  -32.8180   68.2100   26.3770 F   0  0  0  0  0  0  0  0  0  0  0  0
  -30.8400   69.0010   26.7560 F   0  0  0  0  0  0  0  0  0  0  0  0
  -31.8210   69.4310   24.9430 F   0  0  0  0  0  0  0  0  0  0  0  0
  -31.8550   74.2170   27.9680 S   0  0  2  0  0  0  0  0  0  0  0  0
  -32.1180   74.9540   26.7120 O   0  0  0  0  0  0  0  0  0  0  0  0
  -30.2730   73.9530   27.9410 C   0  0  0  0  0  0  0  0  0  0  0  0
  -29.4790   74.8760   27.4060 C   0  0  0  0  0  0  0  0  0  0  0  0
  -27.9870   74.6920   27.3470 C   0  0  0  0  0  0  0  0  0  0  0  0
  -27.2520   75.9590   27.7830 C   0  0  0  0  0  0  0  0  0  0  0  0
  -27.9870   76.6780   28.8250 N   0  0  0  0  0  0  0  0  0  0  0  0
  -28.2450   76.2250   29.9790 C   0  0  0  0  0  0  0  0  0  0  0  0
  -27.7950   74.6770   30.5040 S   0  0  0  0  0  0  0  0  0  0  0  0
  1  2  1  0  0  0  0
  2  3  1  0  0  0  0
  4  2  1  0  0  0  0
  5  2  1  0  0  0  0
  5  7  1  0  0  0  0
  6  5  2  0  0  0  0
  8  7  2  0  0  0  0
  8 15  1  0  0  0  0
  9  8  1  0  0  0  0
 10  6  1  0  0  0  0
 10  9  2  0  0  0  0
 11 12  1  0  0  0  0
 11 10  1  0  0  0  0
 11 13  1  0  0  0  0
 14 11  1  0  0  0  0
 15 16  2  6  0  0  0
 17 15  1  0  0  0  0
 18 17  2  0  0  0  0
 19 18  1  0  0  0  0
 19 20  1  0  0  0  0
 20 21  1  0  0  0  0
 21 22  2  0  0  0  0
 22 23  1  0  0  0  0
M  END
