ligand_pdbs\DHT.pdb
 OpenBabel06092512053D

 21 24  0  0  1  0  0  0  0  0999 V2000
   27.6850    5.1990    4.5650 C   0  0  0  0  0  0  0  0  0  0  0  0
   26.8140    6.4850    4.6360 C   0  0  0  0  0  0  0  0  0  0  0  0
   25.4840    6.2800    3.9440 C   0  0  0  0  0  0  0  0  0  0  0  0
   24.9040    7.2490    3.4480 O   0  0  0  0  0  0  0  0  0  0  0  0
   24.8870    4.9640    3.8570 C   0  0  0  0  0  0  0  0  0  0  0  0
   25.4640    3.9030    4.3570 C   0  0  0  0  0  0  0  0  0  0  0  0
   24.7270    2.5600    4.2410 C   0  0  0  0  0  0  0  0  0  0  0  0
   25.6130    1.4540    3.6090 C   0  0  0  0  0  0  0  0  0  0  0  0
   26.9550    1.3030    4.3590 C   0  0  2  0  0  0  0  0  0  0  0  0
   27.7080    2.6560    4.2790 C   0  0  1  0  0  0  0  0  0  0  0  0
   26.9430    3.8760    4.9490 C   0  0  1  0  0  0  0  0  0  0  0  0
   29.1610    2.5250    4.8300 C   0  0  0  0  0  0  0  0  0  0  0  0
   29.9510    1.3440    4.1920 C   0  0  0  0  0  0  0  0  0  0  0  0
   29.1940   -0.0100    4.3390 C   0  0  1  0  0  0  0  0  0  0  0  0
   27.7840    0.2120    3.6800 C   0  0  1  0  0  0  0  0  0  0  0  0
   27.1780   -1.2320    3.6470 C   0  0  0  0  0  0  0  0  0  0  0  0
   28.4350   -2.1180    3.3100 C   0  0  0  0  0  0  0  0  0  0  0  0
   29.6790   -1.1890    3.4260 C   0  0  2  0  0  0  0  0  0  0  0  0
   30.9100   -1.9180    3.9810 O   0  0  0  0  0  0  0  0  0  0  0  0
   29.1070   -0.4500    5.8470 C   0  0  0  0  0  0  0  0  0  0  0  0
   26.7810    3.7700    6.5240 C   0  0  0  0  0  0  0  0  0  0  0  0
  1  2  1  0  0  0  0
  1 11  1  0  0  0  0
  3  2  1  0  0  0  0
  4  3  2  0  0  0  0
  5  3  1  0  0  0  0
  5  6  2  0  0  0  0
  6 11  1  0  0  0  0
  7  6  1  0  0  0  0
  8  7  1  0  0  0  0
  9  8  1  6  0  0  0
 10  9  1  0  0  0  0
 10 12  1  1  0  0  0
 10 11  1  0  0  0  0
 11 21  1  1  0  0  0
 13 14  1  0  0  0  0
 13 12  1  0  0  0  0
 14 20  1  1  0  0  0
 15 16  1  1  0  0  0
 15 14  1  0  0  0  0
 15  9  1  0  0  0  0
 17 18  1  0  0  0  0
 17 16  1  0  0  0  0
 18 19  1  1  0  0  0
 18 14  1  0  0  0  0
M  END
