ligand_pdbs/DHT_A_931 .pdb
 OpenBabel05122511023D

 21 24  0  0  1  0  0  0  0  0999 V2000
   27.3270    5.3110    4.5490 C   0  0  0  0  0  0  0  0  0  0  0  0
   26.5320    6.5610    4.9710 C   0  0  0  0  0  0  0  0  0  0  0  0
   25.1010    6.4010    4.3720 C   0  0  0  0  0  0  0  0  0  0  0  0
   24.6240    7.3320    3.7400 O   0  0  0  0  0  0  0  0  0  0  0  0
   24.3850    5.1050    4.5920 C   0  0  0  0  0  0  0  0  0  0  0  0
   25.2300    3.8930    4.1140 C   0  0  2  0  0  0  0  0  0  0  0  0
   24.5070    2.5260    4.3440 C   0  0  0  0  0  0  0  0  0  0  0  0
   25.3890    1.3820    3.8150 C   0  0  0  0  0  0  0  0  0  0  0  0
   26.7980    1.3420    4.5080 C   0  0  2  0  0  0  0  0  0  0  0  0
   27.5110    2.7250    4.3050 C   0  0  1  0  0  0  0  0  0  0  0  0
   26.6560    3.9360    4.8490 C   0  0  1  0  0  0  0  0  0  0  0  0
   28.9280    2.6530    4.9720 C   0  0  0  0  0  0  0  0  0  0  0  0
   29.8290    1.5060    4.5220 C   0  0  0  0  0  0  0  0  0  0  0  0
   29.1190    0.1300    4.5830 C   0  0  1  0  0  0  0  0  0  0  0  0
   27.7020    0.2320    3.9230 C   0  0  1  0  0  0  0  0  0  0  0  0
   27.1980   -1.2270    4.0150 C   0  0  0  0  0  0  0  0  0  0  0  0
   28.4760   -2.0310    3.6270 C   0  0  0  0  0  0  0  0  0  0  0  0
   29.6390   -1.0050    3.7180 C   0  0  2  0  0  0  0  0  0  0  0  0
   30.8040   -1.6410    4.2560 O   0  0  0  0  0  0  0  0  0  0  0  0
   29.0190   -0.3200    6.0970 C   0  0  0  0  0  0  0  0  0  0  0  0
   26.4720    3.7720    6.4150 C   0  0  0  0  0  0  0  0  0  0  0  0
  1 11  1  0  0  0  0
  1  2  1  0  0  0  0
  3  5  1  0  0  0  0
  3  2  1  0  0  0  0
  4  3  2  0  0  0  0
  6  7  1  1  0  0  0
  6  5  1  0  0  0  0
  6 11  1  0  0  0  0
  8  7  1  0  0  0  0
  9  8  1  6  0  0  0
 10  9  1  0  0  0  0
 10 11  1  0  0  0  0
 10 12  1  1  0  0  0
 11 21  1  1  0  0  0
 13 14  1  0  0  0  0
 13 12  1  0  0  0  0
 14 20  1  1  0  0  0
 15 16  1  1  0  0  0
 15  9  1  0  0  0  0
 15 14  1  0  0  0  0
 17 18  1  0  0  0  0
 17 16  1  0  0  0  0
 18 19  1  1  0  0  0
 18 14  1  0  0  0  0
M  END
