ligand_pdbs\DQL.pdb
 OpenBabel06092512053D

 12 13  0  0  1  0  0  0  0  0999 V2000
    8.9620    9.2520    2.7100 C   0  0  0  0  0  0  0  0  0  0  0  0
    8.4590    9.8560    3.8500 C   0  0  0  0  0  0  0  0  0  0  0  0
    7.4150    9.2180    4.5460 O   0  0  0  0  0  0  0  0  0  0  0  0
    9.0070   11.0850    4.2940 C   0  0  0  0  0  0  0  0  0  0  0  0
    8.5880   11.7850    5.4220 N   0  0  0  0  0  4  0  0  0  0  0  0
    9.2390   12.9250    5.6570 C   0  0  0  0  0  0  0  0  0  0  0  0
    8.9960   13.8290    6.7510 N   0  0  0  0  0  0  0  0  0  0  0  0
   10.4250   13.1330    4.4470 S   0  0  0  0  0  0  0  0  0  0  0  0
   10.0490   11.6920    3.5930 C   0  0  0  0  0  0  0  0  0  0  0  0
   10.5480   11.0870    2.4400 C   0  0  0  0  0  0  0  0  0  0  0  0
    9.9960    9.8790    2.0130 C   0  0  1  0  0  0  0  0  0  0  0  0
   10.6460    9.1060    0.5180 S   0  0  0  0  0  0  0  0  0  0  0  0
  1  2  2  0  0  0  0
  2  4  1  0  0  0  0
  2  3  1  0  0  0  0
  4  5  2  0  0  0  0
  5  6  2  0  0  0  0
  6  7  1  0  0  0  0
  8  6  1  0  0  0  0
  9  4  1  0  0  0  0
  9  8  1  0  0  0  0
 10  9  2  0  0  0  0
 11 12  1  1  0  0  0
 11 10  1  0  0  0  0
 11  1  1  0  0  0  0
M  END
