ligand_pdbs\DTT.pdb
 OpenBabel06092512053D

  8  7  0  0  1  0  0  0  0  0999 V2000
   29.1430   16.1110   -2.1300 S   0  0  0  0  0  0  0  0  0  0  0  0
   28.5020   17.3090   -3.3110 C   0  0  0  0  0  0  0  0  0  0  0  0
   28.8970   16.7150   -4.6470 C   0  0  1  0  0  0  0  0  0  0  0  0
   28.3500   17.3120   -5.3790 O   0  0  0  0  0  0  0  0  0  0  0  0
   30.3110   16.4800   -4.8700 C   0  0  2  0  0  0  0  0  0  0  0  0
   30.9790   16.9880   -3.7870 O   0  0  0  0  0  0  0  0  0  0  0  0
   30.9750   17.1050   -6.0020 C   0  0  0  0  0  0  0  0  0  0  0  0
   32.1730   15.8720   -5.9980 S   0  0  0  0  0  0  0  0  0  0  0  0
  2  1  1  0  0  0  0
  3  4  1  6  0  0  0
  3  2  1  0  0  0  0
  5  3  1  0  0  0  0
  5  6  1  1  0  0  0
  7  8  1  0  0  0  0
  7  5  1  0  0  0  0
M  END
