ligand_pdbs\DW9.pdb
 OpenBabel06092512053D

 24 27  0  0  1  0  0  0  0  0999 V2000
  -12.5960    4.7610    9.2070 C   0  0  0  0  0  0  0  0  0  0  0  0
  -11.2620    5.0440    9.5060 C   0  0  2  0  0  0  0  0  0  0  0  0
  -10.2610    4.9880    8.5300 C   0  0  0  0  0  0  0  0  0  0  0  0
  -10.6890    4.6160    7.2580 C   0  0  0  0  0  0  0  0  0  0  0  0
  -12.0130    4.3540    6.9480 C   0  0  0  0  0  0  0  0  0  0  0  0
  -12.9790    4.4140    7.9050 C   0  0  0  0  0  0  0  0  0  0  0  0
  -12.9310    5.2070   11.4530 C   0  0  0  0  0  0  0  0  0  0  0  0
   -8.6690    7.4400    5.1460 C   0  0  0  0  0  0  0  0  0  0  0  0
   -8.6500    7.9170    6.4580 C   0  0  0  0  0  0  0  0  0  0  0  0
   -8.2060    9.2130    6.6510 C   0  0  0  0  0  0  0  0  0  0  0  0
   -7.7640    9.9630    5.5230 C   0  0  0  0  0  0  0  0  0  0  0  0
   -7.7570    9.4090    4.2460 C   0  0  0  0  0  0  0  0  0  0  0  0
   -8.1950    8.1350    4.0610 C   0  0  0  0  0  0  0  0  0  0  0  0
   -6.9130   11.7720    4.3890 C   0  0  0  0  0  0  0  0  0  0  0  0
  -13.4670    4.8610   10.2910 N   0  0  0  0  0  4  0  0  0  0  0  0
  -13.6530    5.3710   12.7020 N   0  0  0  0  0  0  0  0  0  0  0  0
   -7.2860   11.2610    5.5740 N   0  0  0  0  0  4  0  0  0  0  0  0
   -6.3910   13.1020    4.1990 N   0  0  0  0  0  0  0  0  0  0  0  0
  -14.3000    4.1200    7.5660 O   0  0  0  0  0  0  0  0  0  0  0  0
   -8.2100    9.7730    7.9500 O   0  0  0  0  0  0  0  0  0  0  0  0
  -11.2700    5.4150   11.1730 S   0  0  0  0  0  0  0  0  0  0  0  0
   -9.8070    4.4300    5.7260 S   0  0  0  0  0  0  0  0  0  0  0  0
   -9.1450    5.7870    4.7050 S   0  0  0  0  0  0  0  0  0  0  0  0
   -7.1390   10.5890    3.1910 S   0  0  0  0  0  0  0  0  0  0  0  0
  1  2  1  0  0  0  0
  1 15  2  0  0  0  0
  2  3  1  1  0  0  0
  2 21  1  0  0  0  0
  4  3  2  0  0  0  0
  5  4  1  0  0  0  0
  5  6  2  0  0  0  0
  6  1  1  0  0  0  0
  7 16  1  0  0  0  0
  8  9  1  0  0  0  0
  9 10  2  0  0  0  0
 10 20  1  0  0  0  0
 11 17  2  0  0  0  0
 11 10  1  0  0  0  0
 12 11  1  0  0  0  0
 13 12  2  0  0  0  0
 13  8  1  0  0  0  0
 14 17  2  0  0  0  0
 15  7  2  0  0  0  0
 18 14  1  0  0  0  0
 19  6  1  0  0  0  0
 21  7  1  0  0  0  0
 22  4  1  0  0  0  0
 23  8  2  0  0  0  0
 23 22  1  0  0  0  0
 24 12  1  0  0  0  0
 24 14  1  0  0  0  0
M  END
