ligand_pdbs\ENM.pdb
 OpenBabel06092512053D

 32 36  0  0  1  0  0  0  0  0999 V2000
   30.5150    2.1340   11.4970 C   0  0  0  0  0  0  0  0  0  0  0  0
   30.0030    2.2100   12.8120 C   0  0  0  0  0  0  0  0  0  0  0  0
   30.3230    3.2570   13.6150 F   0  0  0  0  0  0  0  0  0  0  0  0
   29.1260    1.2230   13.2840 C   0  0  0  0  0  0  0  0  0  0  0  0
   28.7540    0.1600   12.4480 C   0  0  0  0  0  0  0  0  0  0  0  0
   27.8780   -0.7670   12.8900 F   0  0  0  0  0  0  0  0  0  0  0  0
   29.2600    0.0790   11.1420 C   0  0  0  0  0  0  0  0  0  0  0  0
   30.1360    1.0660   10.6600 C   0  0  0  0  0  0  0  0  0  0  0  0
   30.5500    1.0170    9.3300 C   0  0  0  0  0  0  0  0  0  0  0  0
   29.6860    0.3710    8.3840 O   0  0  0  0  0  0  0  0  0  0  0  0
   30.0730    0.6240    7.0300 C   0  0  0  0  0  0  0  0  0  0  0  0
   28.9340    0.0740    6.1510 C   0  0  0  0  0  0  0  0  0  0  0  0
   29.1160    0.4020    4.6250 C   0  0  2  0  0  0  0  0  0  0  0  0
   29.6980    1.8150    4.3850 C   0  0  0  0  0  0  0  0  0  0  0  0
   28.7030    2.8900    4.9300 C   0  0  0  0  0  0  0  0  0  0  0  0
   27.2920    2.7480    4.2710 C   0  0  2  0  0  0  0  0  0  0  0  0
   26.2700    3.8310    4.7490 C   0  0  1  0  0  0  0  0  0  0  0  0
   26.0300    3.7050    6.2790 C   0  0  0  0  0  0  0  0  0  0  0  0
   26.8360    5.2460    4.4220 C   0  0  0  0  0  0  0  0  0  0  0  0
   25.8350    6.3820    4.7490 C   0  0  0  0  0  0  0  0  0  0  0  0
   24.4670    6.0960    4.1150 C   0  0  0  0  0  0  0  0  0  0  0  0
   23.8740    6.9730    3.4850 O   0  0  0  0  0  0  0  0  0  0  0  0
   23.8630    4.6930    4.2660 C   0  0  0  0  0  0  0  0  0  0  0  0
   24.9320    3.6210    3.9550 C   0  0  2  0  0  0  0  0  0  0  0  0
   24.3570    2.2040    4.1700 C   0  0  0  0  0  0  0  0  0  0  0  0
   25.3720    1.1440    3.7050 C   0  0  0  0  0  0  0  0  0  0  0  0
   26.7250    1.2930    4.4500 C   0  0  1  0  0  0  0  0  0  0  0  0
   27.7730    0.3070    3.8960 C   0  0  2  0  0  0  0  0  0  0  0  0
   27.4240   -1.1820    3.9250 C   0  0  0  0  0  0  0  0  0  0  0  0
   28.8020   -1.8630    3.7130 C   0  0  0  0  0  0  0  0  0  0  0  0
   29.8560   -0.7390    3.9190 C   0  0  2  0  0  0  0  0  0  0  0  0
   30.9900   -1.2100    4.6580 O   0  0  0  0  0  0  0  0  0  0  0  0
  1  2  1  0  0  0  0
  2  4  2  0  0  0  0
  2  3  1  0  0  0  0
  5  6  1  0  0  0  0
  5  4  1  0  0  0  0
  7  5  2  0  0  0  0
  8  7  1  0  0  0  0
  8  1  2  0  0  0  0
  9  8  1  0  0  0  0
 10  9  1  0  0  0  0
 11 10  1  0  0  0  0
 12 11  1  0  0  0  0
 13 12  1  1  0  0  0
 14 13  1  0  0  0  0
 14 15  1  0  0  0  0
 16 27  1  0  0  0  0
 16 17  1  0  0  0  0
 16 15  1  1  0  0  0
 17 18  1  1  0  0  0
 19 17  1  0  0  0  0
 19 20  1  0  0  0  0
 21 23  1  0  0  0  0
 21 20  1  0  0  0  0
 22 21  2  0  0  0  0
 24 25  1  1  0  0  0
 24 23  1  0  0  0  0
 24 17  1  0  0  0  0
 26 25  1  0  0  0  0
 27 26  1  6  0  0  0
 28 29  1  1  0  0  0
 28 27  1  0  0  0  0
 28 13  1  0  0  0  0
 30 31  1  0  0  0  0
 30 29  1  0  0  0  0
 31 13  1  0  0  0  0
 31 32  1  1  0  0  0
M  END
