ligand_pdbs\EPE.pdb
 OpenBabel06092512053D

 12 12  0  0  0  0  0  0  0  0999 V2000
    1.3070    0.8520    1.0330 N   0  0  0  0  0  0  0  0  0  0  0  0
    1.3250    0.7880   -0.4350 C   0  0  0  0  0  0  0  0  0  0  0  0
    0.1890    1.5210   -0.9260 C   0  0  0  0  0  0  0  0  0  0  0  0
    0.3670    2.9400   -0.5710 N   0  0  0  0  0  0  0  0  0  0  0  0
    0.2660    3.1200    0.9730 C   0  0  0  0  0  0  0  0  0  0  0  0
    1.3840    2.2520    1.6180 C   0  0  0  0  0  0  0  0  0  0  0  0
    2.4640    0.1280    1.6680 C   0  0  0  0  0  0  0  0  0  0  0  0
    2.3330   -1.2570    1.0620 C   0  0  0  0  0  0  0  0  0  0  0  0
    3.6530   -2.2500    1.6500 S   0  0  0  0  0  0  0  0  0  0  0  0
    3.3130   -3.4760    1.0070 O   0  0  0  0  0  0  0  0  0  0  0  0
    3.6260   -2.4080    3.1050 O   0  0  0  0  0  0  0  0  0  0  0  0
    4.9810   -1.6340    1.2940 O   0  0  0  0  0  0  0  0  0  0  0  0
  1  6  1  0  0  0  0
  1  7  1  0  0  0  0
  2  1  1  0  0  0  0
  3  4  1  0  0  0  0
  3  2  1  0  0  0  0
  4  5  1  0  0  0  0
  5  6  1  0  0  0  0
  8  9  1  0  0  0  0
  8  7  1  0  0  0  0
  9 11  1  0  0  0  0
 10  9  1  0  0  0  0
 12  9  1  0  0  0  0
M  END
