ligand_pdbs\EQF.pdb
 OpenBabel06092512053D

 21 22  0  0  1  0  0  0  0  0999 V2000
  -36.7880   70.3580   26.7460 F   0  0  0  0  0  0  0  0  0  0  0  0
  -35.4960   70.2790   27.0690 C   0  0  0  0  0  0  0  0  0  0  0  0
  -34.7880   69.4220   26.3110 F   0  0  0  0  0  0  0  0  0  0  0  0
  -35.4580   69.8110   28.2850 F   0  0  0  0  0  0  0  0  0  0  0  0
  -34.9040   71.6590   27.1920 C   0  0  2  0  0  0  0  0  0  0  0  0
  -33.5440   71.7780   27.4750 C   0  0  0  0  0  0  0  0  0  0  0  0
  -32.4220   70.3780   27.6340 Cl  0  0  0  0  0  0  0  0  0  0  0  0
  -35.7110   72.8080   27.0670 C   0  0  0  0  0  0  0  0  0  0  0  0
  -35.1290   74.0550   27.1990 C   0  0  0  0  0  0  0  0  0  0  0  0
  -33.7640   74.1170   27.4610 C   0  0  0  0  0  0  0  0  0  0  0  0
  -33.0190   72.9990   27.6030 N   0  0  0  0  0  4  0  0  0  0  0  0
  -33.1170   75.2900   27.6160 N   0  0  0  0  0  0  0  0  0  0  0  0
  -31.7870   75.2250   28.0950 N   0  0  0  0  0  0  0  0  0  0  0  0
  -31.4600   74.9400   29.3480 C   0  0  0  0  0  0  0  0  0  0  0  0
  -32.2510   74.7200   30.2570 O   0  0  0  0  0  0  0  0  0  0  0  0
  -29.9610   74.9240   29.5140 C   0  0  1  0  0  0  0  0  0  0  0  0
  -29.5300   73.5470   30.0440 C   0  0  0  0  0  0  0  0  0  0  0  0
  -29.4640   75.3440   28.1110 C   0  0  1  0  0  0  0  0  0  0  0  0
  -28.4280   74.4540   27.4200 C   0  0  0  0  0  0  0  0  0  0  0  0
  -30.7380   75.4310   27.3240 C   0  0  0  0  0  0  0  0  0  0  0  0
  -30.7900   75.6630   26.1370 O   0  0  0  0  0  0  0  0  0  0  0  0
  1  2  1  0  0  0  0
  2  4  1  0  0  0  0
  3  2  1  0  0  0  0
  5  2  1  1  0  0  0
  5  6  1  0  0  0  0
  6 11  2  0  0  0  0
  6  7  1  0  0  0  0
  8  5  1  0  0  0  0
  8  9  2  0  0  0  0
  9 10  1  0  0  0  0
 10 11  2  0  0  0  0
 10 12  1  0  0  0  0
 12 13  1  0  0  0  0
 13 14  1  0  0  0  0
 14 16  1  0  0  0  0
 14 15  2  0  0  0  0
 16 17  1  6  0  0  0
 18 19  1  6  0  0  0
 18 16  1  0  0  0  0
 20 13  1  0  0  0  0
 20 18  1  0  0  0  0
 21 20  2  0  0  0  0
M  END
