ligand_pdbs\F2X.pdb
 OpenBabel06092512053D

 14 15  0  0  1  0  0  0  0  0999 V2000
  -13.6800    1.4480   25.8410 O   0  0  0  0  0  0  0  0  0  0  0  0
  -13.3950    2.2430   24.9850 C   0  0  0  0  0  0  0  0  0  0  0  0
  -14.1610    3.5290   24.9180 C   0  0  2  0  0  0  0  0  0  0  0  0
  -15.5950    3.1880   25.2890 C   0  0  0  0  0  0  0  0  0  0  0  0
  -14.1280    4.2730   23.5790 C   0  0  0  0  0  0  0  0  0  0  0  0
  -12.8800    3.9760   22.7940 C   0  0  0  0  0  0  0  0  0  0  0  0
  -12.5470    4.7890   21.9720 O   0  0  0  0  0  0  0  0  0  0  0  0
  -12.2990    1.9360   24.0430 C   0  0  0  0  0  0  0  0  0  0  0  0
  -12.0450    2.7570   22.9860 C   0  0  0  0  0  0  0  0  0  0  0  0
  -11.5210    0.8190   24.2210 C   0  0  0  0  0  0  0  0  0  0  0  0
  -10.4970    0.5460   23.3260 C   0  0  0  0  0  0  0  0  0  0  0  0
  -10.2430    1.3700   22.2490 C   0  0  0  0  0  0  0  0  0  0  0  0
  -11.0380    2.4890   22.0930 C   0  0  0  0  0  0  0  0  0  0  0  0
  -10.8040    3.3150   21.0520 O   0  0  0  0  0  0  0  0  0  0  0  0
  2  1  2  0  0  0  0
  3  2  1  0  0  0  0
  3  4  1  6  0  0  0
  5  3  1  0  0  0  0
  6  9  1  0  0  0  0
  6  5  1  0  0  0  0
  7  6  2  0  0  0  0
  8 10  1  0  0  0  0
  8  2  1  0  0  0  0
  9  8  2  0  0  0  0
 11 10  2  0  0  0  0
 12 11  1  0  0  0  0
 13 12  2  0  0  0  0
 13  9  1  0  0  0  0
 14 13  1  0  0  0  0
M  END
