ligand_pdbs\FAK.pdb
 OpenBabel06092512053D

 15 14  0  0  1  0  0  0  0  0999 V2000
   17.2580   24.3120  -18.1850 N   0  0  0  0  0  0  0  0  0  0  0  0
   16.0840   25.0860  -17.8040 C   0  0  2  0  0  0  0  0  0  0  0  0
   16.4600   25.6690  -16.4450 C   0  0  0  0  0  0  0  0  0  0  0  0
   16.6950   24.9230  -15.4790 O   0  0  0  0  0  0  0  0  0  0  0  0
   14.8650   24.2010  -17.6950 C   0  0  0  0  0  0  0  0  0  0  0  0
   13.7220   25.0420  -17.1800 C   0  0  0  0  0  0  0  0  0  0  0  0
   12.5050   24.1280  -17.2260 C   0  0  0  0  0  0  0  0  0  0  0  0
   11.5240   24.6850  -16.2170 C   0  0  0  0  0  0  0  0  0  0  0  0
   10.3660   23.7850  -16.2360 N   0  0  0  0  0  0  0  0  0  0  0  0
    9.1540   24.2170  -15.8010 C   0  0  0  0  0  0  0  0  0  0  0  0
    8.8870   25.3510  -15.3890 O   0  0  0  0  0  0  0  0  0  0  0  0
    8.0220   23.1450  -15.8290 C   0  0  0  0  0  0  0  0  0  0  0  0
    7.4290   23.0890  -14.5470 F   0  0  0  0  0  0  0  0  0  0  0  0
    8.5510   21.7810  -16.1850 F   0  0  0  0  0  0  0  0  0  0  0  0
    7.1260   23.5060  -16.6980 F   0  0  0  0  0  0  0  0  0  0  0  0
  2  1  1  1  0  0  0
  2  5  1  0  0  0  0
  2  3  1  0  0  0  0
  3  4  2  0  0  0  0
  5  6  1  0  0  0  0
  7  6  1  0  0  0  0
  7  8  1  0  0  0  0
  9  8  1  0  0  0  0
  9 10  1  0  0  0  0
 10 11  2  0  0  0  0
 12 10  1  0  0  0  0
 12 13  1  0  0  0  0
 14 12  1  0  0  0  0
 15 12  1  0  0  0  0
M  END
