ligand_pdbs\FLF.pdb
 OpenBabel06092512053D

 20 21  0  0  0  0  0  0  0  0999 V2000
   20.0840   15.6620   31.3940 C   0  0  0  0  0  0  0  0  0  0  0  0
   20.7420   17.9120   30.9340 O   0  0  0  0  0  0  0  0  0  0  0  0
   20.4610   14.5320   32.0990 C   0  0  0  0  0  0  0  0  0  0  0  0
   20.0280   13.2680   31.6900 C   0  0  0  0  0  0  0  0  0  0  0  0
   20.9050   17.1950   33.0240 O   0  0  0  0  0  0  0  0  0  0  0  0
   19.2190   13.1490   30.5710 C   0  0  0  0  0  0  0  0  0  0  0  0
   18.8420   14.2980   29.8580 C   0  0  0  0  0  0  0  0  0  0  0  0
   19.2770   15.5480   30.2630 C   0  0  0  0  0  0  0  0  0  0  0  0
   20.6290   17.0320   31.8100 C   0  0  0  0  0  0  0  0  0  0  0  0
   18.8600   16.6720   29.6640 N   0  0  0  0  0  0  0  0  0  0  0  0
   18.0940   16.7380   28.5810 C   0  0  0  0  0  0  0  0  0  0  0  0
   17.7060   17.9870   28.1380 C   0  0  0  0  0  0  0  0  0  0  0  0
   16.8600   18.1200   27.0270 C   0  0  0  0  0  0  0  0  0  0  0  0
   16.4150   16.9870   26.3610 C   0  0  0  0  0  0  0  0  0  0  0  0
   16.8050   15.7290   26.8100 C   0  0  0  0  0  0  0  0  0  0  0  0
   17.6330   15.6030   27.9090 C   0  0  0  0  0  0  0  0  0  0  0  0
   16.4090   19.5190   26.5820 C   0  0  0  0  0  0  0  0  0  0  0  0
   16.0240   20.2380   27.6370 F   0  0  0  0  0  0  0  0  0  0  0  0
   15.3890   19.4190   25.7300 F   0  0  0  0  0  0  0  0  0  0  0  0
   17.4240   20.1340   25.9760 F   0  0  0  0  0  0  0  0  0  0  0  0
  1  9  1  0  0  0  0
  1  3  1  0  0  0  0
  2  9  2  0  0  0  0
  4  3  2  0  0  0  0
  6  4  1  0  0  0  0
  7  8  1  0  0  0  0
  7  6  2  0  0  0  0
  8  1  2  0  0  0  0
  9  5  1  0  0  0  0
 10  8  1  0  0  0  0
 11 10  1  0  0  0  0
 12 11  1  0  0  0  0
 13 12  2  0  0  0  0
 14 15  2  0  0  0  0
 14 13  1  0  0  0  0
 15 16  1  0  0  0  0
 16 11  2  0  0  0  0
 17 13  1  0  0  0  0
 17 18  1  0  0  0  0
 19 17  1  0  0  0  0
 20 17  1  0  0  0  0
M  END
