ligand_pdbs\GDP.pdb
 OpenBabel06092512053D

 28 30  0  0  1  0  0  0  0  0999 V2000
   -1.2130   -0.2000  -20.8170 P   0  0  0  0  0  0  0  0  0  0  0  0
   -0.8940   -1.4940  -21.3910 O   0  0  0  0  0  0  0  0  0  0  0  0
   -2.5900    0.2800  -21.1160 O   0  0  0  0  0  0  0  0  0  0  0  0
   -0.9950   -0.2220  -19.3030 O   0  0  0  0  0  0  0  0  0  0  0  0
   -0.0900    0.9040  -21.1370 O   0  0  0  0  0  0  0  0  0  0  0  0
   -0.4720    2.3170  -21.7520 P   0  0  1  0  0  0  0  0  0  0  0  0
   -0.6530    2.0480  -23.1820 O   0  0  0  0  0  0  0  0  0  0  0  0
   -1.5820    2.9680  -21.0520 O   0  0  0  0  0  0  0  0  0  0  0  0
    0.8640    3.1200  -21.6410 O   0  0  0  0  0  0  0  0  0  0  0  0
    1.2620    3.5210  -20.3820 C   0  0  0  0  0  0  0  0  0  0  0  0
    2.3520    4.5820  -20.3250 C   0  0  1  0  0  0  0  0  0  0  0  0
    3.6180    4.1800  -20.8540 O   0  0  0  0  0  0  0  0  0  0  0  0
    1.9930    5.8790  -21.0350 C   0  0  1  0  0  0  0  0  0  0  0  0
    2.3990    6.9180  -20.1410 O   0  0  0  0  0  0  0  0  0  0  0  0
    2.8740    5.7730  -22.2850 C   0  0  1  0  0  0  0  0  0  0  0  0
    3.2460    7.0320  -22.8930 O   0  0  0  0  0  0  0  0  0  0  0  0
    4.0930    5.0710  -21.8120 C   0  0  2  0  0  0  0  0  0  0  0  0
    4.7900    4.2850  -22.7960 N   0  0  0  0  0  0  0  0  0  0  0  0
    4.3350    3.3570  -23.6390 C   0  0  0  0  0  0  0  0  0  0  0  0
    5.2190    2.8210  -24.4070 N   0  0  0  0  0  0  0  0  0  0  0  0
    6.3730    3.4380  -24.0530 C   0  0  0  0  0  0  0  0  0  0  0  0
    7.7500    3.2870  -24.5360 C   0  0  0  0  0  0  0  0  0  0  0  0
    8.2180    2.5350  -25.4140 O   0  0  0  0  0  0  0  0  0  0  0  0
    8.6460    4.1560  -23.8700 N   0  0  0  0  0  4  0  0  0  0  0  0
    8.2960    5.0420  -22.8810 C   0  0  0  0  0  0  0  0  0  0  0  0
    9.2560    5.7810  -22.3710 N   0  0  0  0  0  0  0  0  0  0  0  0
    7.0070    5.1690  -22.4340 N   0  0  0  0  0  4  0  0  0  0  0  0
    6.1130    4.3470  -23.0580 C   0  0  0  0  0  0  0  0  0  0  0  0
  1  4  1  0  0  0  0
  2  1  2  0  0  0  0
  3  1  1  0  0  0  0
  5  1  1  0  0  0  0
  6  7  2  6  0  0  0
  6  9  1  0  0  0  0
  6  5  1  0  0  0  0
  6  8  1  0  0  0  0
  9 10  1  0  0  0  0
 11 10  1  6  0  0  0
 12 11  1  0  0  0  0
 13 11  1  0  0  0  0
 13 14  1  1  0  0  0
 15 16  1  1  0  0  0
 15 17  1  0  0  0  0
 15 13  1  0  0  0  0
 17 18  1  6  0  0  0
 17 12  1  0  0  0  0
 19 18  1  0  0  0  0
 20 21  2  0  0  0  0
 20 19  1  0  0  0  0
 21 28  1  0  0  0  0
 22 21  1  0  0  0  0
 22 24  2  0  0  0  0
 23 22  2  0  0  0  0
 24 25  2  0  0  0  0
 25 27  2  0  0  0  0
 25 26  1  0  0  0  0
 28 18  1  0  0  0  0
 28 27  2  0  0  0  0
M  END
