ligand_pdbs\GLC.pdb
 OpenBabel06092512053D

 12 12  0  0  1  0  0  0  0  0999 V2000
   -8.0150  -11.7750  -14.7990 C   0  0  1  0  0  0  0  0  0  0  0  0
   -6.6500  -12.1880  -15.3450 C   0  0  1  0  0  0  0  0  0  0  0  0
   -6.2640  -13.5950  -14.9070 C   0  0  2  0  0  0  0  0  0  0  0  0
   -6.3470  -13.6600  -13.3790 C   0  0  1  0  0  0  0  0  0  0  0  0
   -7.7720  -13.2880  -12.9620 C   0  0  1  0  0  0  0  0  0  0  0  0
   -7.9570  -13.4180  -11.4540 C   0  0  0  0  0  0  0  0  0  0  0  0
   -9.0390  -12.5520  -15.4250 O   0  0  0  0  0  0  0  0  0  0  0  0
   -6.6430  -12.1160  -16.7750 O   0  0  0  0  0  0  0  0  0  0  0  0
   -4.9330  -13.8200  -15.3800 O   0  0  0  0  0  0  0  0  0  0  0  0
   -5.9670  -14.8770  -12.6950 O   0  0  0  0  0  0  0  0  0  0  0  0
   -8.0630  -11.9510  -13.3800 O   0  0  0  0  0  0  0  0  0  0  0  0
   -8.1090  -14.7960  -11.0980 O   0  0  0  0  0  0  0  0  0  0  0  0
  1  7  1  6  0  0  0
  1 11  1  0  0  0  0
  2  8  1  6  0  0  0
  2  3  1  0  0  0  0
  2  1  1  0  0  0  0
  3  9  1  1  0  0  0
  3  4  1  0  0  0  0
  4  5  1  0  0  0  0
  4 10  1  6  0  0  0
  5  6  1  1  0  0  0
  6 12  1  0  0  0  0
 11  5  1  0  0  0  0
M  END
