ligand_pdbs\GNP.pdb
 OpenBabel06092512053D

 32 34  0  0  1  0  0  0  0  0999 V2000
   -4.4900  -11.4330   23.8380 P   0  0  0  0  0  0  0  0  0  0  0  0
   -5.6970  -11.8070   23.1350 O   0  0  0  0  0  0  0  0  0  0  0  0
   -3.3610  -11.3590   22.9100 O   0  0  0  0  0  0  0  0  0  0  0  0
   -4.1980  -12.6730   24.7060 O   0  0  0  0  0  0  0  0  0  0  0  0
   -4.6460  -10.1230   24.7890 N   0  0  0  0  0  0  0  0  0  0  0  0
   -5.1220   -8.6560   24.2090 P   0  0  1  0  0  0  0  0  0  0  0  0
   -4.0510   -7.8410   23.6700 O   0  0  0  0  0  0  0  0  0  0  0  0
   -6.2960   -8.6850   23.3270 O   0  0  0  0  0  0  0  0  0  0  0  0
   -5.6280   -7.8350   25.5000 O   0  0  0  0  0  0  0  0  0  0  0  0
   -7.1340   -7.6320   26.0350 P   0  0  1  0  0  0  0  0  0  0  0  0
   -7.9120   -6.8310   25.0400 O   0  0  0  0  0  0  0  0  0  0  0  0
   -7.6980   -8.9480   26.4540 O   0  0  0  0  0  0  0  0  0  0  0  0
   -6.8540   -6.7090   27.3410 O   0  0  0  0  0  0  0  0  0  0  0  0
   -6.1910   -7.2640   28.5170 C   0  0  0  0  0  0  0  0  0  0  0  0
   -6.5010   -6.4240   29.7790 C   0  0  1  0  0  0  0  0  0  0  0  0
   -6.0160   -5.0820   29.6200 O   0  0  0  0  0  0  0  0  0  0  0  0
   -8.0050   -6.3100   30.1180 C   0  0  1  0  0  0  0  0  0  0  0  0
   -8.1930   -6.3510   31.5330 O   0  0  0  0  0  0  0  0  0  0  0  0
   -8.3480   -4.9110   29.5800 C   0  0  1  0  0  0  0  0  0  0  0  0
   -9.4590   -4.3380   30.2850 O   0  0  0  0  0  0  0  0  0  0  0  0
   -7.0660   -4.1580   29.9110 C   0  0  2  0  0  0  0  0  0  0  0  0
   -6.9190   -2.9420   29.0800 N   0  0  0  0  0  0  0  0  0  0  0  0
   -6.7980   -2.8320   27.6950 C   0  0  0  0  0  0  0  0  0  0  0  0
   -6.7470   -1.6190   27.2500 N   0  0  0  0  0  0  0  0  0  0  0  0
   -6.4990   -0.8640   28.4150 C   0  0  0  0  0  0  0  0  0  0  0  0
   -6.1460    0.5410   28.5970 C   0  0  0  0  0  0  0  0  0  0  0  0
   -5.9730    1.4070   27.7430 O   0  0  0  0  0  0  0  0  0  0  0  0
   -6.0020    0.8890   29.9490 N   0  0  0  0  0  4  0  0  0  0  0  0
   -6.1850    0.0450   31.0270 C   0  0  0  0  0  0  0  0  0  0  0  0
   -6.0440    0.5370   32.2730 N   0  0  0  0  0  0  0  0  0  0  0  0
   -6.5050   -1.2890   30.8670 N   0  0  0  0  0  4  0  0  0  0  0  0
   -6.6340   -1.6750   29.5490 C   0  0  0  0  0  0  0  0  0  0  0  0
  1  4  1  0  0  0  0
  1  5  1  0  0  0  0
  2  1  1  0  0  0  0
  3  1  2  0  0  0  0
  6  8  2  6  0  0  0
  6  5  1  0  0  0  0
  6  9  1  0  0  0  0
  7  6  1  0  0  0  0
  9 10  1  0  0  0  0
 10 11  2  6  0  0  0
 10 12  1  0  0  0  0
 10 13  1  0  0  0  0
 13 14  1  0  0  0  0
 15 14  1  6  0  0  0
 15 17  1  0  0  0  0
 16 15  1  0  0  0  0
 16 21  1  0  0  0  0
 17 18  1  1  0  0  0
 19 21  1  0  0  0  0
 19 17  1  0  0  0  0
 19 20  1  1  0  0  0
 21 22  1  6  0  0  0
 22 32  1  0  0  0  0
 23 22  1  0  0  0  0
 24 23  1  0  0  0  0
 24 25  2  0  0  0  0
 25 26  1  0  0  0  0
 25 32  1  0  0  0  0
 26 28  2  0  0  0  0
 27 26  2  0  0  0  0
 28 29  2  0  0  0  0
 29 30  1  0  0  0  0
 31 29  2  0  0  0  0
 32 31  2  0  0  0  0
M  END
