ligand_pdbs/GOL_A_1002 .pdb
 OpenBabel05122511023D

  6  5  0  0  0  0  0  0  0  0999 V2000
   23.5250    1.9350   37.5590 C   0  0  0  0  0  0  0  0  0  0  0  0
   22.7520    3.3250   37.3220 O   0  0  0  0  0  0  0  0  0  0  0  0
   24.0930    1.1400   36.5620 C   0  0  0  0  0  0  0  0  0  0  0  0
   24.2310    1.6810   35.3430 O   0  0  0  0  0  0  0  0  0  0  0  0
   24.4590   -0.1790   36.9610 C   0  0  0  0  0  0  0  0  0  0  0  0
   24.6670   -1.4430   37.8500 O   0  0  0  0  0  0  0  0  0  0  0  0
  2  1  1  0  0  0  0
  3  5  2  0  0  0  0
  3  1  1  0  0  0  0
  4  3  1  0  0  0  0
  5  6  2  0  0  0  0
M  END
