ligand_pdbs\GTP.pdb
 OpenBabel06092512053D

 32 34  0  0  1  0  0  0  0  0999 V2000
   35.5700 -103.9010  -44.4970 P   0  0  0  0  0  0  0  0  0  0  0  0
   34.3170 -103.0610  -44.5940 O   0  0  0  0  0  0  0  0  0  0  0  0
   35.2990 -105.3790  -44.3220 O   0  0  0  0  0  0  0  0  0  0  0  0
   36.3800 -103.7600  -45.7640 O   0  0  0  0  0  0  0  0  0  0  0  0
   36.3990 -103.4070  -43.2100 O   0  0  0  0  0  0  0  0  0  0  0  0
   36.2300 -101.9290  -42.6010 P   0  0  2  0  0  0  0  0  0  0  0  0
   35.1620 -101.1260  -43.3010 O   0  0  0  0  0  0  0  0  0  0  0  0
   37.5640 -101.2140  -42.5670 O   0  0  0  0  0  0  0  0  0  0  0  0
   35.7760 -102.2870  -41.1110 O   0  0  0  0  0  0  0  0  0  0  0  0
   34.7350 -101.3560  -40.3410 P   0  0  2  0  0  0  0  0  0  0  0  0
   33.3300 -101.6550  -40.8190 O   0  0  0  0  0  0  0  0  0  0  0  0
   35.1010  -99.8970  -40.4980 O   0  0  0  0  0  0  0  0  0  0  0  0
   34.8530 -101.8650  -38.8260 O   0  0  0  0  0  0  0  0  0  0  0  0
   35.9910 -101.5010  -38.1050 C   0  0  0  0  0  0  0  0  0  0  0  0
   35.9670 -102.1490  -36.7370 C   0  0  1  0  0  0  0  0  0  0  0  0
   37.0560 -101.5740  -36.0640 O   0  0  0  0  0  0  0  0  0  0  0  0
   34.7230 -101.7760  -35.9510 C   0  0  1  0  0  0  0  0  0  0  0  0
   34.4650 -102.7930  -35.0000 O   0  0  0  0  0  0  0  0  0  0  0  0
   35.1380 -100.5440  -35.2030 C   0  0  1  0  0  0  0  0  0  0  0  0
   34.4740 -100.5050  -33.9640 O   0  0  0  0  0  0  0  0  0  0  0  0
   36.6400 -100.7250  -35.0260 C   0  0  2  0  0  0  0  0  0  0  0  0
   37.2900  -99.4160  -35.1990 N   0  0  0  0  0  0  0  0  0  0  0  0
   37.3090  -98.6340  -36.3210 C   0  0  0  0  0  0  0  0  0  0  0  0
   38.0330  -97.5230  -36.0480 N   0  0  0  0  0  0  0  0  0  0  0  0
   38.4940  -97.6040  -34.7730 C   0  0  0  0  0  0  0  0  0  0  0  0
   39.2740  -96.7560  -33.9850 C   0  0  0  0  0  0  0  0  0  0  0  0
   39.7010  -95.6850  -34.4250 O   0  0  0  0  0  0  0  0  0  0  0  0
   39.5750  -97.1280  -32.6930 N   0  0  0  0  0  4  0  0  0  0  0  0
   39.1070  -98.3270  -32.1920 C   0  0  0  0  0  0  0  0  0  0  0  0
   39.3840  -98.6960  -30.9510 N   0  0  0  0  0  0  0  0  0  0  0  0
   38.3370  -99.1550  -32.9750 N   0  0  0  0  0  4  0  0  0  0  0  0
   38.0340  -98.7950  -34.2400 C   0  0  0  0  0  0  0  0  0  0  0  0
  1  3  1  0  0  0  0
  1  5  1  0  0  0  0
  2  1  1  0  0  0  0
  4  1  2  0  0  0  0
  5  6  1  0  0  0  0
  6  7  2  6  0  0  0
  6  8  1  0  0  0  0
  6  9  1  0  0  0  0
  9 10  1  0  0  0  0
 10 11  2  6  0  0  0
 10 13  1  0  0  0  0
 12 10  1  0  0  0  0
 13 14  1  0  0  0  0
 15 14  1  6  0  0  0
 15 16  1  0  0  0  0
 15 17  1  0  0  0  0
 16 21  1  0  0  0  0
 17 19  1  0  0  0  0
 17 18  1  1  0  0  0
 19 21  1  0  0  0  0
 19 20  1  1  0  0  0
 21 22  1  6  0  0  0
 22 32  1  0  0  0  0
 23 24  1  0  0  0  0
 23 22  1  0  0  0  0
 24 25  2  0  0  0  0
 25 32  1  0  0  0  0
 25 26  1  0  0  0  0
 26 28  2  0  0  0  0
 27 26  2  0  0  0  0
 28 29  2  0  0  0  0
 29 30  1  0  0  0  0
 31 29  2  0  0  0  0
 32 31  2  0  0  0  0
M  END
