ligand_pdbs\HYQ.pdb
 OpenBabel06092512053D

 26 30  0  0  1  0  0  0  0  0999 V2000
   29.9310    0.8080    4.3390 C   0  0  2  0  0  0  0  0  0  0  0  0
   29.2060    2.0660    4.6920 C   0  0  0  0  0  0  0  0  0  0  0  0
   29.5770    2.7700    5.6270 O   0  0  0  0  0  0  0  0  0  0  0  0
   28.1640    2.2560    3.8530 N   0  0  0  0  0  0  0  0  0  0  0  0
   27.4140    3.3940    3.8120 C   0  0  0  0  0  0  0  0  0  0  0  0
   28.1650    4.6140    3.4820 C   0  0  0  0  0  0  0  0  0  0  0  0
   27.4810    5.8800    3.5260 C   0  0  0  0  0  0  0  0  0  0  0  0
   26.0500    5.9110    3.8290 C   0  0  0  0  0  0  0  0  0  0  0  0
   25.4790    7.1300    3.7780 N   0  0  0  0  0  0  0  0  0  0  0  0
   24.5710    7.4000    2.8220 O   0  0  0  0  0  0  0  0  0  0  0  0
   25.9040    8.1950    4.5330 O   0  0  0  0  0  0  0  0  0  0  0  0
   25.2430    4.7330    4.0970 C   0  0  0  0  0  0  0  0  0  0  0  0
   23.7970    4.7850    4.3270 C   0  0  0  0  0  0  0  0  0  0  0  0
   23.0400    3.5440    4.5610 C   0  0  0  0  0  0  0  0  0  0  0  0
   23.7240    2.2410    4.5810 C   0  0  0  0  0  0  0  0  0  0  0  0
   25.1870    2.1640    4.3730 C   0  0  0  0  0  0  0  0  0  0  0  0
   25.9660    3.3800    4.1040 C   0  0  0  0  0  0  0  0  0  0  0  0
   28.0350    1.2700    2.9510 C   0  0  0  0  0  0  0  0  0  0  0  0
   27.1550    1.1160    2.1080 O   0  0  0  0  0  0  0  0  0  0  0  0
   29.1700    0.2950    3.0800 C   0  0  2  0  0  0  0  0  0  0  0  0
   28.6210   -1.1350    3.3140 C   0  0  2  0  0  0  0  0  0  0  0  0
   27.7260   -1.1420    4.5650 C   0  0  0  0  0  0  0  0  0  0  0  0
   28.4730   -0.6500    5.7970 C   0  0  0  0  0  0  0  0  0  0  0  0
   29.9180   -0.2450    5.4720 C   0  0  1  0  0  0  0  0  0  0  0  0
   30.5560   -1.5230    4.9090 C   0  0  0  0  0  0  0  0  0  0  0  0
   29.8010   -2.0450    3.6860 C   0  0  0  0  0  0  0  0  0  0  0  0
  1  2  1  1  0  0  0
  1 24  1  0  0  0  0
  2  3  2  0  0  0  0
  4  2  1  0  0  0  0
  5  4  1  0  0  0  0
  5 17  1  0  0  0  0
  6  7  1  0  0  0  0
  6  5  2  0  0  0  0
  7  8  2  0  0  0  0
  8 12  1  0  0  0  0
  9  8  1  0  0  0  0
  9 11  2  0  0  0  0
 10  9  2  0  0  0  0
 12 17  2  0  0  0  0
 12 13  1  0  0  0  0
 13 14  2  0  0  0  0
 14 15  1  0  0  0  0
 16 15  2  0  0  0  0
 17 16  1  0  0  0  0
 18  4  1  0  0  0  0
 19 18  2  0  0  0  0
 20 18  1  1  0  0  0
 20 21  1  0  0  0  0
 20  1  1  0  0  0  0
 21 26  1  1  0  0  0
 21 22  1  0  0  0  0
 22 23  1  0  0  0  0
 24 25  1  6  0  0  0
 24 23  1  0  0  0  0
 26 25  1  0  0  0  0
M  END
