ligand_pdbs\IHP.pdb
 OpenBabel06092512053D

 36 36  0  0  1  0  0  0  0  0999 V2000
  265.7480  229.2310  221.1200 C   0  0  1  0  0  0  0  0  0  0  0  0
  266.1390  230.6870  220.9430 C   0  0  2  0  0  0  0  0  0  0  0  0
  267.4780  230.7940  220.2300 C   0  0  2  0  0  0  0  0  0  0  0  0
  267.3730  230.2160  218.8220 C   0  0  2  0  0  0  0  0  0  0  0  0
  266.5620  228.9020  218.6910 C   0  0  2  0  0  0  0  0  0  0  0  0
  265.5050  228.5700  219.7700 C   0  0  1  0  0  0  0  0  0  0  0  0
  266.7580  228.5220  221.8230 O   0  0  0  0  0  0  0  0  0  0  0  0
  266.3270  227.4540  222.9470 P   0  0  0  0  0  0  0  0  0  0  0  0
  266.2480  228.2710  224.2130 O   0  0  0  0  0  0  0  0  0  0  0  0
  267.4420  226.4380  222.9150 O   0  0  0  0  0  0  0  0  0  0  0  0
  264.9920  226.9290  222.4830 O   0  0  0  0  0  0  0  0  0  0  0  0
  266.1760  231.3560  222.2020 O   0  0  0  0  0  0  0  0  0  0  0  0
  265.6820  232.8850  222.3020 P   0  0  0  0  0  0  0  0  0  0  0  0
  264.4380  232.9340  221.4500 O   0  0  0  0  0  0  0  0  0  0  0  0
  265.4320  233.0990  223.7750 O   0  0  0  0  0  0  0  0  0  0  0  0
  266.8390  233.6700  221.7350 O   0  0  0  0  0  0  0  0  0  0  0  0
  268.5240  230.1430  220.9500 O   0  0  0  0  0  0  0  0  0  0  0  0
  269.9830  230.8230  221.0180 P   0  0  0  0  0  0  0  0  0  0  0  0
  270.3700  230.7240  222.4710 O   0  0  0  0  0  0  0  0  0  0  0  0
  270.8340  229.9900  220.0920 O   0  0  0  0  0  0  0  0  0  0  0  0
  269.7440  232.2340  220.5450 O   0  0  0  0  0  0  0  0  0  0  0  0
  268.6950  230.0930  218.2740 O   0  0  0  0  0  0  0  0  0  0  0  0
  269.2640  231.1440  217.1900 P   0  0  0  0  0  0  0  0  0  0  0  0
  268.5580  232.4340  217.5360 O   0  0  0  0  0  0  0  0  0  0  0  0
  270.7490  231.1520  217.4380 O   0  0  0  0  0  0  0  0  0  0  0  0
  268.8910  230.5690  215.8480 O   0  0  0  0  0  0  0  0  0  0  0  0
  267.4290  227.7930  218.4520 O   0  0  0  0  0  0  0  0  0  0  0  0
  267.7330  227.4580  216.9140 P   0  0  0  0  0  0  0  0  0  0  0  0
  269.0470  228.1510  216.6540 O   0  0  0  0  0  0  0  0  0  0  0  0
  267.7930  225.9530  216.8660 O   0  0  0  0  0  0  0  0  0  0  0  0
  266.5520  228.0530  216.1920 O   0  0  0  0  0  0  0  0  0  0  0  0
  265.3760  227.1530  219.9710 O   0  0  0  0  0  0  0  0  0  0  0  0
  264.0080  226.3450  219.6750 P   0  0  0  0  0  0  0  0  0  0  0  0
  263.5790  226.8390  218.3160 O   0  0  0  0  0  0  0  0  0  0  0  0
  264.4250  224.8950  219.7020 O   0  0  0  0  0  0  0  0  0  0  0  0
  263.0840  226.7310  220.8010 O   0  0  0  0  0  0  0  0  0  0  0  0
  1  7  1  6  0  0  0
  2  1  1  0  0  0  0
  2 12  1  1  0  0  0
  3  2  1  0  0  0  0
  3 17  1  1  0  0  0
  4 22  1  1  0  0  0
  4  3  1  0  0  0  0
  5 27  1  1  0  0  0
  5  4  1  0  0  0  0
  5  6  1  0  0  0  0
  6 32  1  1  0  0  0
  6  1  1  0  0  0  0
  7  8  1  0  0  0  0
  8  9  1  0  0  0  0
 10  8  1  0  0  0  0
 11  8  2  0  0  0  0
 12 13  1  0  0  0  0
 13 15  1  0  0  0  0
 14 13  2  0  0  0  0
 16 13  1  0  0  0  0
 17 18  1  0  0  0  0
 18 19  1  0  0  0  0
 20 18  2  0  0  0  0
 21 18  1  0  0  0  0
 23 25  1  0  0  0  0
 23 24  1  0  0  0  0
 23 22  1  0  0  0  0
 26 23  2  0  0  0  0
 28 27  1  0  0  0  0
 29 28  1  0  0  0  0
 30 28  1  0  0  0  0
 31 28  2  0  0  0  0
 33 35  1  0  0  0  0
 33 32  1  0  0  0  0
 33 36  1  0  0  0  0
 34 33  2  0  0  0  0
M  END
