ligand_pdbs\IMD.pdb
 OpenBabel06092512053D

  5  5  0  0  0  0  0  0  0  0999 V2000
   16.6850  -17.1850  -29.5360 N   0  0  0  0  0  0  0  0  0  0  0  0
   15.6750  -17.5740  -28.7240 C   0  0  0  0  0  0  0  0  0  0  0  0
   15.9150  -17.0850  -27.5070 N   0  0  0  0  0  0  0  0  0  0  0  0
   17.0910  -16.3730  -27.5210 C   0  0  0  0  0  0  0  0  0  0  0  0
   17.5490  -16.3990  -28.7940 C   0  0  0  0  0  0  0  0  0  0  0  0
  1  5  2  0  0  0  0
  1  2  1  0  0  0  0
  2  3  1  0  0  0  0
  4  3  2  0  0  0  0
  5  4  1  0  0  0  0
M  END
