ligand_pdbs\JAD.pdb
 OpenBabel06092512053D

 21 23  0  0  1  0  0  0  0  0999 V2000
   23.6410    5.0210    4.0810 Cl  0  0  0  0  0  0  0  0  0  0  0  0
   25.3710    4.5570    3.9880 C   0  0  0  0  0  0  0  0  0  0  0  0
   26.3140    5.5590    3.8100 C   0  0  0  0  0  0  0  0  0  0  0  0
   25.9620    6.7930    3.7130 C   0  0  0  0  0  0  0  0  0  0  0  0
   25.6640    7.9120    3.6620 N   0  0  0  0  0  0  0  0  0  0  0  0
   25.7490    3.2160    4.0980 C   0  0  0  0  0  0  0  0  0  0  0  0
   24.6550    2.1880    4.2910 C   0  0  0  0  0  0  0  0  0  0  0  0
   27.1080    2.8790    4.0190 C   0  0  0  0  0  0  0  0  0  0  0  0
   28.0450    3.9020    3.8430 C   0  0  0  0  0  0  0  0  0  0  0  0
   27.6590    5.2300    3.7370 C   0  0  0  0  0  0  0  0  0  0  0  0
   27.6490    1.4720    4.1240 C   0  0  0  0  0  0  0  0  0  0  0  0
   29.0690    1.1900    4.4710 C   0  0  1  0  0  0  0  0  0  0  0  0
   29.3190    1.6760    5.7850 O   0  0  0  0  0  0  0  0  0  0  0  0
   30.6990    1.8220    6.1040 C   0  0  0  0  0  0  0  0  0  0  0  0
   29.1070   -0.3210    4.4080 C   0  0  2  0  0  0  0  0  0  0  0  0
   29.7970   -0.8830    3.1690 C   0  0  1  0  0  0  0  0  0  0  0  0
   30.9870   -1.5980    3.5090 O   0  0  0  0  0  0  0  0  0  0  0  0
   28.7990   -1.8120    2.5030 C   0  0  0  0  0  0  0  0  0  0  0  0
   27.5460   -1.8030    3.3710 C   0  0  0  0  0  0  0  0  0  0  0  0
   27.6890   -0.7070    4.3430 N   0  0  0  0  0  0  0  0  0  0  0  0
   27.0210    0.3890    3.9590 N   0  0  0  0  0  0  0  0  0  0  0  0
  2  1  1  0  0  0  0
  2  6  1  0  0  0  0
  3  2  2  0  0  0  0
  4  3  1  0  0  0  0
  5  4  3  0  0  0  0
  6  7  1  0  0  0  0
  8  6  2  0  0  0  0
  8 11  1  0  0  0  0
  9  8  1  0  0  0  0
 10  3  1  0  0  0  0
 10  9  2  0  0  0  0
 11 12  1  0  0  0  0
 12 13  1  1  0  0  0
 13 14  1  0  0  0  0
 15 20  1  6  0  0  0
 15 12  1  0  0  0  0
 16 17  1  1  0  0  0
 16 15  1  0  0  0  0
 18 16  1  0  0  0  0
 18 19  1  0  0  0  0
 19 20  1  0  0  0  0
 21 11  2  0  0  0  0
 21 20  1  0  0  0  0
M  END
