ligand_pdbs\K10.pdb
 OpenBabel06092512053D

 23 25  0  0  1  0  0  0  0  0999 V2000
   31.8710   39.5110   19.1520 N   0  0  0  0  0  0  0  0  0  0  0  0
   32.9070   39.8130   18.3750 C   0  0  0  0  0  0  0  0  0  0  0  0
   33.1130   39.1490   17.2330 N   0  0  0  0  0  0  0  0  0  0  0  0
   34.1350   39.4420   16.4400 C   0  0  0  0  0  0  0  0  0  0  0  0
   34.9830   40.3990   16.7410 N   0  0  0  0  0  0  0  0  0  0  0  0
   34.8370   41.1130   17.8810 C   0  0  0  0  0  0  0  0  0  0  0  0
   33.7790   40.8210   18.7280 C   0  0  2  0  0  0  0  0  0  0  0  0
   33.9240   41.7120   19.7900 C   0  0  0  0  0  0  0  0  0  0  0  0
   34.9950   42.4460   19.5290 N   0  0  0  0  0  0  0  0  0  0  0  0
   35.5060   42.1020   18.4470 N   0  0  0  0  0  0  0  0  0  0  0  0
   36.7340   42.7410   17.8860 C   0  0  0  0  0  0  0  0  0  0  0  0
   36.3680   43.4850   16.5930 C   0  0  0  0  0  0  0  0  0  0  0  0
   37.3010   43.7330   18.9040 C   0  0  0  0  0  0  0  0  0  0  0  0
   37.7900   41.6610   17.5950 C   0  0  0  0  0  0  0  0  0  0  0  0
   33.0470   41.7880   21.0410 C   0  0  0  0  0  0  0  0  0  0  0  0
   33.4390   42.9700   21.9240 C   0  0  0  0  0  0  0  0  0  0  0  0
   34.5110   42.7740   22.7960 C   0  0  0  0  0  0  0  0  0  0  0  0
   34.9490   43.7880   23.6350 C   0  0  0  0  0  0  0  0  0  0  0  0
   34.3110   45.0190   23.6190 C   0  0  0  0  0  0  0  0  0  0  0  0
   33.2360   45.2210   22.7560 C   0  0  0  0  0  0  0  0  0  0  0  0
   32.8080   44.2040   21.9190 C   0  0  0  0  0  0  0  0  0  0  0  0
   31.6260   44.4820   20.9910 C   0  0  0  0  0  0  0  0  0  0  0  0
   36.1220   43.5510   24.5890 C   0  0  0  0  0  0  0  0  0  0  0  0
  2  7  1  0  0  0  0
  2  1  1  0  0  0  0
  3  2  2  0  0  0  0
  4  5  1  0  0  0  0
  4  3  1  0  0  0  0
  5  6  2  0  0  0  0
  6 10  1  0  0  0  0
  7  6  1  1  0  0  0
  7  8  1  0  0  0  0
  8 15  1  0  0  0  0
  9  8  2  0  0  0  0
 10  9  1  0  0  0  0
 11 10  1  0  0  0  0
 11 13  1  0  0  0  0
 12 11  1  0  0  0  0
 14 11  1  0  0  0  0
 15 16  1  0  0  0  0
 16 17  1  0  0  0  0
 17 18  2  0  0  0  0
 18 23  1  0  0  0  0
 19 18  1  0  0  0  0
 20 19  2  0  0  0  0
 21 16  2  0  0  0  0
 21 20  1  0  0  0  0
 22 21  1  0  0  0  0
M  END
