ligand_pdbs\K76.pdb
 OpenBabel06092512053D

 29 31  0  0  0  0  0  0  0  0999 V2000
  -37.9630   70.2010   26.5110 F   0  0  0  0  0  0  0  0  0  0  0  0
  -37.2450   71.1480   27.0580 C   0  0  0  0  0  0  0  0  0  0  0  0
  -37.6860   71.2780   28.2750 F   0  0  0  0  0  0  0  0  0  0  0  0
  -37.4320   72.2640   26.3850 F   0  0  0  0  0  0  0  0  0  0  0  0
  -35.7770   70.8350   27.1180 C   0  0  0  0  0  0  0  0  0  0  0  0
  -35.2980   69.6100   26.6970 C   0  0  0  0  0  0  0  0  0  0  0  0
  -33.9430   69.3170   26.7570 C   0  0  0  0  0  0  0  0  0  0  0  0
  -33.4710   67.9810   26.2910 C   0  0  0  0  0  0  0  0  0  0  0  0
  -33.5080   67.9750   24.9890 F   0  0  0  0  0  0  0  0  0  0  0  0
  -34.2360   67.0260   26.7720 F   0  0  0  0  0  0  0  0  0  0  0  0
  -32.2470   67.7630   26.6960 F   0  0  0  0  0  0  0  0  0  0  0  0
  -33.0440   70.2580   27.2260 C   0  0  0  0  0  0  0  0  0  0  0  0
  -34.8810   71.7820   27.6010 C   0  0  0  0  0  0  0  0  0  0  0  0
  -33.5170   71.4880   27.6580 C   0  0  0  0  0  0  0  0  0  0  0  0
  -32.5450   72.4890   28.1640 C   0  0  0  0  0  0  0  0  0  0  0  0
  -31.2160   72.2870   28.3400 N   0  0  0  0  0  0  0  0  0  0  0  0
  -30.6500   73.4190   28.8060 C   0  0  0  0  0  0  0  0  0  0  0  0
  -32.8420   73.7440   28.5220 N   0  0  0  0  0  0  0  0  0  0  0  0
  -31.6330   74.2970   28.9320 N   0  0  0  0  0  0  0  0  0  0  0  0
  -31.7230   75.6940   29.3660 C   0  0  0  0  0  0  0  0  0  0  0  0
  -32.1340   76.4830   28.1300 C   0  0  0  0  0  0  0  0  0  0  0  0
  -31.4740   77.8400   28.0660 C   0  0  0  0  0  0  0  0  0  0  0  0
  -30.2560   77.9410   28.0050 O   0  0  0  0  0  0  0  0  0  0  0  0
  -32.2900   78.8850   28.0600 N   0  0  0  0  0  0  0  0  0  0  0  0
  -33.7370   78.9870   28.1090 C   0  0  0  0  0  0  0  0  0  0  0  0
  -32.0200   80.3090   27.9850 C   0  0  0  0  0  0  0  0  0  0  0  0
  -33.5360   80.4940   27.9630 C   0  0  0  0  0  0  0  0  0  0  0  0
  -34.0070   81.1620   29.0010 F   0  0  0  0  0  0  0  0  0  0  0  0
  -34.0110   80.9180   26.8030 F   0  0  0  0  0  0  0  0  0  0  0  0
  1  2  1  0  0  0  0
  2  5  1  0  0  0  0
  2  3  1  0  0  0  0
  4  2  1  0  0  0  0
  5 13  1  0  0  0  0
  6  7  1  0  0  0  0
  6  5  2  0  0  0  0
  7 12  2  0  0  0  0
  8 11  1  0  0  0  0
  8  7  1  0  0  0  0
  8 10  1  0  0  0  0
  9  8  1  0  0  0  0
 12 14  1  0  0  0  0
 13 14  2  0  0  0  0
 14 15  1  0  0  0  0
 15 16  2  0  0  0  0
 15 18  2  0  0  0  0
 16 17  1  0  0  0  0
 17 19  1  0  0  0  0
 18 19  1  0  0  0  0
 19 20  1  0  0  0  0
 21 20  1  0  0  0  0
 22 21  1  0  0  0  0
 23 22  2  0  0  0  0
 24 22  1  0  0  0  0
 24 25  1  0  0  0  0
 26 24  1  0  0  0  0
 27 26  1  0  0  0  0
 27 25  1  0  0  0  0
 27 28  1  0  0  0  0
 29 27  1  0  0  0  0
M  END
