ligand_pdbs\K8H.pdb
 OpenBabel06092512053D

 28 32  0  0  1  0  0  0  0  0999 V2000
  -36.1570  -32.9030   -2.5480 C   0  0  0  0  0  0  0  0  0  0  0  0
  -31.1350  -37.3190   -2.6970 O   0  0  0  0  0  0  0  0  0  0  0  0
  -35.8650  -34.8970   -3.4960 C   0  0  0  0  0  0  0  0  0  0  0  0
  -33.6530  -37.7730   -1.7700 O   0  0  0  0  0  0  0  0  0  0  0  0
  -37.1970  -34.9430   -3.8950 C   0  0  1  0  0  0  0  0  0  0  0  0
  -37.3670  -36.1850   -4.5920 C   0  0  0  0  0  0  0  0  0  0  0  0
  -36.1570  -36.7960   -4.6350 C   0  0  0  0  0  0  0  0  0  0  0  0
  -33.8480  -36.3040   -3.7520 C   0  0  2  0  0  0  0  0  0  0  0  0
  -31.9990  -37.0400   -4.9580 C   0  0  1  0  0  0  0  0  0  0  0  0
  -31.8780  -37.8840   -6.2130 C   0  0  0  0  0  0  0  0  0  0  0  0
  -29.3840  -38.2070   -6.3270 C   0  0  0  0  0  0  0  0  0  0  0  0
  -28.4840  -39.3170   -6.8710 C   0  0  0  0  0  0  0  0  0  0  0  0
  -29.3920  -40.5340   -6.9560 C   0  0  0  0  0  0  0  0  0  0  0  0
  -30.7820  -39.9130   -7.2060 C   0  0  0  0  0  0  0  0  0  0  0  0
  -30.9180  -39.4830   -8.6770 C   0  0  0  0  0  0  0  0  0  0  0  0
  -31.0730  -40.6730   -9.6300 C   0  0  0  0  0  0  0  0  0  0  0  0
  -31.9270  -42.0620   -7.8780 C   0  0  0  0  0  0  0  0  0  0  0  0
  -39.3080  -33.7510   -3.8990 N   0  0  0  0  0  0  0  0  0  0  0  0
  -38.0090  -33.8420   -3.5470 C   0  0  0  0  0  0  0  0  0  0  0  0
  -37.4560  -32.8000   -2.8870 N   0  0  0  0  0  0  0  0  0  0  0  0
  -35.2970  -33.8970   -2.8000 N   0  0  0  0  0  0  0  0  0  0  0  0
  -35.2370  -36.0300   -3.9370 N   0  0  0  0  0  0  0  0  0  0  0  0
  -33.2250  -36.2680   -5.0180 O   0  0  0  0  0  0  0  0  0  0  0  0
  -30.7270  -38.7860   -6.2320 N   0  0  0  0  0  0  0  0  0  0  0  0
  -32.1600  -41.5990   -9.2460 N   0  0  0  0  0  0  0  0  0  0  0  0
  -31.8910  -40.9170   -6.8780 C   0  0  0  0  0  0  0  0  0  0  0  0
  -32.0630  -37.8460   -3.6370 C   0  0  2  0  0  0  0  0  0  0  0  0
  -33.5190  -37.6810   -3.1750 C   0  0  1  0  0  0  0  0  0  0  0  0
  3 21  2  0  0  0  0
  5  6  1  1  0  0  0
  5 19  1  0  0  0  0
  5  3  1  0  0  0  0
  7  6  2  0  0  0  0
  7 22  1  0  0  0  0
  8 22  1  6  0  0  0
  8 28  1  0  0  0  0
  9 10  1  6  0  0  0
  9 27  1  0  0  0  0
 11 24  1  0  0  0  0
 12 11  1  0  0  0  0
 13 12  1  0  0  0  0
 14 13  1  0  0  0  0
 14 26  1  0  0  0  0
 14 24  1  0  0  0  0
 15 14  1  0  0  0  0
 16 25  1  0  0  0  0
 16 15  1  0  0  0  0
 17 26  1  0  0  0  0
 18 19  1  0  0  0  0
 19 20  2  0  0  0  0
 20  1  1  0  0  0  0
 21  1  1  0  0  0  0
 22  3  1  0  0  0  0
 23  9  1  0  0  0  0
 23  8  1  0  0  0  0
 24 10  1  0  0  0  0
 25 17  1  0  0  0  0
 27 28  1  0  0  0  0
 27  2  1  1  0  0  0
 28  4  1  1  0  0  0
M  END
