ligand_pdbs\K8N.pdb
 OpenBabel06092512053D

 31 35  0  0  1  0  0  0  0  0999 V2000
  -38.9170  -34.8340   -3.7150 N   0  0  0  0  0  0  0  0  0  0  0  0
  -37.6180  -34.9120   -3.4150 C   0  0  0  0  0  0  0  0  0  0  0  0
  -37.0890  -33.9080   -2.6970 N   0  0  0  0  0  0  0  0  0  0  0  0
  -35.7830  -33.9850   -2.3960 C   0  0  0  0  0  0  0  0  0  0  0  0
  -34.9020  -34.9340   -2.6980 N   0  0  0  0  0  0  0  0  0  0  0  0
  -35.4630  -35.9210   -3.4210 C   0  0  0  0  0  0  0  0  0  0  0  0
  -36.7980  -35.9850   -3.8030 C   0  0  2  0  0  0  0  0  0  0  0  0
  -36.9470  -37.1920   -4.5420 C   0  0  0  0  0  0  0  0  0  0  0  0
  -35.7430  -37.7970   -4.5800 C   0  0  0  0  0  0  0  0  0  0  0  0
  -34.8290  -37.0330   -3.9090 N   0  0  0  0  0  0  0  0  0  0  0  0
  -33.4280  -37.3850   -3.6830 C   0  0  2  0  0  0  0  0  0  0  0  0
  -32.6480  -37.6570   -4.9650 C   0  0  0  0  0  0  0  0  0  0  0  0
  -31.4610  -38.5440   -4.5690 C   0  0  2  0  0  0  0  0  0  0  0  0
  -31.1390  -39.6100   -5.6140 C   0  0  0  0  0  0  0  0  0  0  0  0
  -30.7890  -39.0800   -7.0000 C   0  0  0  0  0  0  0  0  0  0  0  0
  -30.1360  -40.1660   -7.8120 C   0  0  0  0  0  0  0  0  0  0  0  0
  -28.7310  -40.2220   -7.9320 C   0  0  0  0  0  0  0  0  0  0  0  0
  -28.1250  -41.2210   -8.6220 C   0  0  0  0  0  0  0  0  0  0  0  0
  -28.9030  -42.2290   -9.2150 C   0  0  2  0  0  0  0  0  0  0  0  0
  -28.3310  -43.2780   -9.9420 C   0  0  0  0  0  0  0  0  0  0  0  0
  -29.1490  -44.2130  -10.4840 C   0  0  0  0  0  0  0  0  0  0  0  0
  -28.3750  -45.6660  -11.4010 Br  0  0  0  0  0  0  0  0  0  0  0  0
  -30.5580  -44.1420  -10.3030 C   0  0  0  0  0  0  0  0  0  0  0  0
  -31.3620  -45.0750  -10.8530 N   0  0  0  0  0  0  0  0  0  0  0  0
  -31.1270  -43.1520   -9.6460 N   0  0  0  0  0  4  0  0  0  0  0  0
  -30.3060  -42.1960   -9.0930 C   0  0  0  0  0  0  0  0  0  0  0  0
  -30.9020  -41.1470   -8.3790 C   0  0  0  0  0  0  0  0  0  0  0  0
  -31.8160  -39.1120   -3.1920 C   0  0  1  0  0  0  0  0  0  0  0  0
  -30.8530  -38.6450   -2.2550 O   0  0  0  0  0  0  0  0  0  0  0  0
  -33.2740  -38.7030   -2.9240 C   0  0  1  0  0  0  0  0  0  0  0  0
  -33.5860  -38.5570   -1.5480 O   0  0  0  0  0  0  0  0  0  0  0  0
  1  2  1  0  0  0  0
  2  3  2  0  0  0  0
  3  4  1  0  0  0  0
  5  4  1  0  0  0  0
  6  5  2  0  0  0  0
  7  8  1  6  0  0  0
  7  6  1  0  0  0  0
  7  2  1  0  0  0  0
  9  8  2  0  0  0  0
  9 10  1  0  0  0  0
 10 11  1  0  0  0  0
 10  6  1  0  0  0  0
 11 12  1  6  0  0  0
 11 30  1  0  0  0  0
 12 13  1  0  0  0  0
 13 14  1  6  0  0  0
 13 28  1  0  0  0  0
 15 14  1  0  0  0  0
 16 15  1  0  0  0  0
 17 16  1  0  0  0  0
 18 17  2  0  0  0  0
 19 20  1  6  0  0  0
 19 26  1  0  0  0  0
 19 18  1  0  0  0  0
 21 23  1  0  0  0  0
 21 20  2  0  0  0  0
 22 21  1  0  0  0  0
 23 25  2  0  0  0  0
 24 23  1  0  0  0  0
 25 26  2  0  0  0  0
 26 27  1  0  0  0  0
 27 16  2  0  0  0  0
 28 30  1  0  0  0  0
 28 29  1  1  0  0  0
 30 31  1  1  0  0  0
M  END
