ligand_pdbs\LBF.pdb
 OpenBabel06092512053D

 39 39  0  0  1  0  0  0  0  0999 V2000
  -48.2480   68.0560   33.3660 O   0  0  0  0  0  0  0  0  0  0  0  0
  -47.3300   68.0210   32.5390 C   0  0  0  0  0  0  0  0  0  0  0  0
  -47.4440   67.3220   31.5100 O   0  0  0  0  0  0  0  0  0  0  0  0
  -46.0950   68.7830   32.8440 C   0  0  0  0  0  0  0  0  0  0  0  0
  -44.9640   68.6630   32.1170 C   0  0  0  0  0  0  0  0  0  0  0  0
  -44.9030   67.7860   30.8990 C   0  0  0  0  0  0  0  0  0  0  0  0
  -43.7370   69.4590   32.5060 C   0  0  0  0  0  0  0  0  0  0  0  0
  -43.4040   70.4980   31.4350 C   0  0  2  0  0  0  0  0  0  0  0  0
  -42.1550   71.2800   31.8340 C   0  0  0  0  0  0  0  0  0  0  0  0
  -44.5740   71.4510   31.1720 C   0  0  1  0  0  0  0  0  0  0  0  0
  -44.7760   72.2400   32.3510 O   0  0  0  0  0  0  0  0  0  0  0  0
  -44.3590   72.3580   29.9520 C   0  0  2  0  0  0  0  0  0  0  0  0
  -45.3970   73.4760   29.8950 C   0  0  0  0  0  0  0  0  0  0  0  0
  -44.4210   71.6080   28.6450 C   0  0  0  0  0  0  0  0  0  0  0  0
  -45.0510   70.5620   28.5330 O   0  0  0  0  0  0  0  0  0  0  0  0
  -43.7030   72.1910   27.4570 C   0  0  2  0  0  0  0  0  0  0  0  0
  -44.5810   72.0820   26.2160 C   0  0  0  0  0  0  0  0  0  0  0  0
  -42.3970   71.4740   27.2080 C   0  0  0  0  0  0  0  0  0  0  0  0
  -41.1860   71.9930   27.5080 C   0  0  0  0  0  0  0  0  0  0  0  0
  -41.0320   73.3610   28.1180 C   0  0  0  0  0  0  0  0  0  0  0  0
  -40.0100   71.1560   27.1780 C   0  0  0  0  0  0  0  0  0  0  0  0
  -38.7520   71.5670   27.3300 C   0  0  0  0  0  0  0  0  0  0  0  0
  -37.6290   70.6330   26.9360 C   0  0  0  0  0  0  0  0  0  0  0  0
  -36.5730   70.5490   28.0250 C   0  0  1  0  0  0  0  0  0  0  0  0
  -37.0900   69.8350   29.2720 C   0  0  0  0  0  0  0  0  0  0  0  0
  -35.3750   69.7970   27.4960 C   0  0  0  0  0  0  0  0  0  0  0  0
  -34.1420   70.3300   27.3400 C   0  0  0  0  0  0  0  0  0  0  0  0
  -33.0080   69.4740   26.7980 C   0  0  0  0  0  0  0  0  0  0  0  0
  -33.4510   68.1190   26.2940 C   0  0  0  0  0  0  0  0  0  0  0  0
  -33.8550   71.7410   27.6960 C   0  0  0  0  0  0  0  0  0  0  0  0
  -32.6050   72.2090   27.7010 C   0  0  0  0  0  0  0  0  0  0  0  0
  -32.3260   73.6510   28.0460 C   0  0  2  0  0  0  0  0  0  0  0  0
  -31.7310   74.1920   26.8670 O   0  0  0  0  0  0  0  0  0  0  0  0
  -31.3950   73.8400   29.2360 C   0  0  1  0  0  0  0  0  0  0  0  0
  -30.0130   73.2390   29.0150 C   0  0  0  0  0  0  0  0  0  0  0  0
  -31.2740   75.3280   29.5230 C   0  0  0  0  0  0  0  0  0  0  0  0
  -30.8800   76.1800   28.3160 C   0  0  0  0  0  0  0  0  0  0  0  0
  -31.1430   75.5180   26.9840 C   0  0  0  0  0  0  0  0  0  0  0  0
  -30.8480   76.0990   25.9530 O   0  0  0  0  0  0  0  0  0  0  0  0
  2  4  1  0  0  0  0
  2  1  1  0  0  0  0
  3  2  2  0  0  0  0
  5  7  1  0  0  0  0
  5  4  2  0  0  0  0
  6  5  1  0  0  0  0
  8  9  1  1  0  0  0
  8  7  1  0  0  0  0
 10  8  1  0  0  0  0
 10 11  1  1  0  0  0
 12 13  1  6  0  0  0
 12 10  1  0  0  0  0
 14 12  1  0  0  0  0
 15 14  2  0  0  0  0
 16 17  1  6  0  0  0
 16 14  1  0  0  0  0
 18 16  1  0  0  0  0
 18 19  2  0  0  0  0
 19 20  1  0  0  0  0
 21 22  2  0  0  0  0
 21 19  1  0  0  0  0
 23 22  1  0  0  0  0
 23 24  1  0  0  0  0
 24 25  1  1  0  0  0
 26 24  1  0  0  0  0
 27 26  2  0  0  0  0
 27 30  1  0  0  0  0
 28 27  1  0  0  0  0
 29 28  1  0  0  0  0
 30 31  2  0  0  0  0
 32 31  1  6  0  0  0
 32 34  1  0  0  0  0
 33 38  1  0  0  0  0
 33 32  1  0  0  0  0
 34 35  1  6  0  0  0
 34 36  1  0  0  0  0
 37 36  1  0  0  0  0
 38 37  1  0  0  0  0
 39 38  2  0  0  0  0
M  END
