ligand_pdbs\LG7.pdb
 OpenBabel06092512053D

 23 26  0  0  1  0  0  0  0  0999 V2000
   27.8120    4.2600    3.9140 C   0  0  0  0  0  0  0  0  0  0  0  0
   22.5850    4.4040    4.4980 C   0  0  0  0  0  0  0  0  0  0  0  0
   23.5130    5.3640    4.2520 C   0  0  0  0  0  0  0  0  0  0  0  0
   24.9110    4.8910    4.1490 C   0  0  0  0  0  0  0  0  0  0  0  0
   25.9950    5.8940    3.8810 C   0  0  0  0  0  0  0  0  0  0  0  0
   22.9450    3.0260    4.6630 C   0  0  0  0  0  0  0  0  0  0  0  0
   24.3090    2.5210    4.5710 C   0  0  0  0  0  0  0  0  0  0  0  0
   25.3240    3.5430    4.3020 C   0  0  0  0  0  0  0  0  0  0  0  0
   25.5740    7.2800    3.8020 C   0  0  0  0  0  0  0  0  0  0  0  0
   26.7610    3.2490    4.1730 C   0  0  0  0  0  0  0  0  0  0  0  0
   30.2520    0.9440    3.2430 O   0  0  0  0  0  0  0  0  0  0  0  0
   29.9470   -0.0830    4.1420 C   0  0  2  0  0  0  0  0  0  0  0  0
   29.5440   -1.3820    3.2360 C   0  0  0  0  0  0  0  0  0  0  0  0
   27.9210   -1.3760    3.1240 C   0  0  0  0  0  0  0  0  0  0  0  0
   27.8150   -0.0050    3.7870 N   0  0  0  0  0  0  0  0  0  0  0  0
   28.5650    0.2210    4.9240 C   0  0  2  0  0  0  0  0  0  0  0  0
   28.2500    1.6590    5.2790 C   0  0  0  0  0  0  0  0  0  0  0  0
   28.8200    2.2620    6.3430 O   0  0  0  0  0  0  0  0  0  0  0  0
   27.3460    2.0400    4.2950 N   0  0  0  0  0  0  0  0  0  0  0  0
   27.1000    1.0350    3.4150 C   0  0  0  0  0  0  0  0  0  0  0  0
   26.3650    1.0450    2.4390 O   0  0  0  0  0  0  0  0  0  0  0  0
   27.4190    5.5750    3.7510 C   0  0  0  0  0  0  0  0  0  0  0  0
   25.2280    8.4210    3.7390 N   0  0  0  0  0  0  0  0  0  0  0  0
  1 10  1  0  0  0  0
  2  6  1  0  0  0  0
  3  2  2  0  0  0  0
  4  3  1  0  0  0  0
  4  8  1  0  0  0  0
  5  4  2  0  0  0  0
  7  6  2  0  0  0  0
  8  7  1  0  0  0  0
  9  5  1  0  0  0  0
 10 19  1  0  0  0  0
 10  8  2  0  0  0  0
 12 11  1  6  0  0  0
 12 16  1  0  0  0  0
 13 12  1  0  0  0  0
 14 13  1  0  0  0  0
 14 15  1  0  0  0  0
 15 16  1  0  0  0  0
 16 17  1  6  0  0  0
 17 18  2  0  0  0  0
 19 17  1  0  0  0  0
 20 15  1  0  0  0  0
 20 19  1  0  0  0  0
 21 20  2  0  0  0  0
 22  5  1  0  0  0  0
 22  1  2  0  0  0  0
 23  9  3  0  0  0  0
M  END
