ligand_pdbs\LMB.pdb
 OpenBabel06092512053D

 40 39  0  0  1  0  0  0  0  0999 V2000
  -47.4390   67.4170   31.6100 O   0  0  0  0  0  0  0  0  0  0  0  0
  -47.2920   68.0710   32.6620 C   0  0  0  0  0  0  0  0  0  0  0  0
  -48.2020   68.1020   33.5120 O   0  0  0  0  0  0  0  0  0  0  0  0
  -46.0400   68.8140   32.9370 C   0  0  0  0  0  0  0  0  0  0  0  0
  -44.9530   68.7230   32.1460 C   0  0  0  0  0  0  0  0  0  0  0  0
  -44.9570   67.8910   30.8930 C   0  0  0  0  0  0  0  0  0  0  0  0
  -43.7060   69.5040   32.5000 C   0  0  0  0  0  0  0  0  0  0  0  0
  -43.3960   70.5500   31.4280 C   0  0  2  0  0  0  0  0  0  0  0  0
  -42.1020   71.2760   31.7810 C   0  0  0  0  0  0  0  0  0  0  0  0
  -44.5500   71.5420   31.2390 C   0  0  1  0  0  0  0  0  0  0  0  0
  -44.6330   72.3460   32.4230 O   0  0  0  0  0  0  0  0  0  0  0  0
  -44.4150   72.4600   30.0160 C   0  0  2  0  0  0  0  0  0  0  0  0
  -45.5710   73.4620   29.9540 C   0  0  0  0  0  0  0  0  0  0  0  0
  -44.4160   71.6890   28.7250 C   0  0  0  0  0  0  0  0  0  0  0  0
  -44.9960   70.6190   28.6190 O   0  0  0  0  0  0  0  0  0  0  0  0
  -43.7120   72.2560   27.5340 C   0  0  2  0  0  0  0  0  0  0  0  0
  -44.5900   72.0680   26.3010 C   0  0  0  0  0  0  0  0  0  0  0  0
  -42.4080   71.5400   27.2750 C   0  0  0  0  0  0  0  0  0  0  0  0
  -41.2040   72.0500   27.5930 C   0  0  0  0  0  0  0  0  0  0  0  0
  -41.0420   73.3920   28.2550 C   0  0  0  0  0  0  0  0  0  0  0  0
  -40.0260   71.2380   27.2340 C   0  0  0  0  0  0  0  0  0  0  0  0
  -38.7800   71.6660   27.3930 C   0  0  0  0  0  0  0  0  0  0  0  0
  -37.6450   70.7620   26.9620 C   0  0  0  0  0  0  0  0  0  0  0  0
  -36.5550   70.7490   28.0180 C   0  0  1  0  0  0  0  0  0  0  0  0
  -37.0190   69.9860   29.2540 C   0  0  0  0  0  0  0  0  0  0  0  0
  -35.3230   70.0510   27.4850 C   0  0  0  0  0  0  0  0  0  0  0  0
  -34.0780   70.5770   27.4500 C   0  0  0  0  0  0  0  0  0  0  0  0
  -32.9330   69.7470   26.8920 C   0  0  0  0  0  0  0  0  0  0  0  0
  -33.3710   68.4030   26.3470 C   0  0  0  0  0  0  0  0  0  0  0  0
  -33.7870   71.9610   27.9150 C   0  0  0  0  0  0  0  0  0  0  0  0
  -32.5470   72.4530   27.9530 C   0  0  0  0  0  0  0  0  0  0  0  0
  -32.3250   73.8780   28.4000 C   0  0  2  0  0  0  0  0  0  0  0  0
  -31.6850   74.5120   27.2810 O   0  0  0  0  0  0  0  0  0  0  0  0
  -31.4600   74.0910   29.6460 C   0  0  1  0  0  0  0  0  0  0  0  0
  -30.1450   73.3350   29.5380 C   0  0  0  0  0  0  0  0  0  0  0  0
  -31.1860   75.5860   29.8920 C   0  0  0  0  0  0  0  0  0  0  0  0
  -32.4320   76.4360   29.6010 C   0  0  0  0  0  0  0  0  0  0  0  0
  -32.2620   77.9020   29.9050 C   0  0  0  0  0  0  0  0  0  0  0  0
  -33.2460   78.4930   30.4000 O   0  0  0  0  0  0  0  0  0  0  0  0
  -31.1760   78.4620   29.6300 O   0  0  0  0  0  0  0  0  0  0  0  0
  1  2  2  0  0  0  0
  2  4  1  0  0  0  0
  2  3  1  0  0  0  0
  5  7  1  0  0  0  0
  5  4  2  0  0  0  0
  6  5  1  0  0  0  0
  8  9  1  1  0  0  0
  8  7  1  0  0  0  0
 10  8  1  0  0  0  0
 10 11  1  1  0  0  0
 12 13  1  6  0  0  0
 12 10  1  0  0  0  0
 14 12  1  0  0  0  0
 15 14  2  0  0  0  0
 16 17  1  6  0  0  0
 16 14  1  0  0  0  0
 18 16  1  0  0  0  0
 18 19  2  0  0  0  0
 19 20  1  0  0  0  0
 21 22  2  0  0  0  0
 21 19  1  0  0  0  0
 23 22  1  0  0  0  0
 23 24  1  0  0  0  0
 24 25  1  1  0  0  0
 26 24  1  0  0  0  0
 27 26  2  0  0  0  0
 27 30  1  0  0  0  0
 28 27  1  0  0  0  0
 29 28  1  0  0  0  0
 30 31  2  0  0  0  0
 31 32  1  0  0  0  0
 32 33  1  6  0  0  0
 32 34  1  0  0  0  0
 34 35  1  6  0  0  0
 34 36  1  0  0  0  0
 37 36  1  0  0  0  0
 37 38  1  0  0  0  0
 38 39  1  0  0  0  0
 40 38  2  0  0  0  0
M  END
