ligand_pdbs\M9R.pdb
 OpenBabel06092512053D

 35 38  0  0  0  0  0  0  0  0999 V2000
   15.7220   18.9700  -26.5790 F   0  0  0  0  0  0  0  0  0  0  0  0
   16.7820   19.5920  -26.2170 C   0  0  0  0  0  0  0  0  0  0  0  0
   16.8000   20.7730  -26.6940 F   0  0  0  0  0  0  0  0  0  0  0  0
   16.7290   19.7740  -24.9450 F   0  0  0  0  0  0  0  0  0  0  0  0
   18.0050   18.8720  -26.6340 C   0  0  0  0  0  0  0  0  0  0  0  0
   19.1630   19.5990  -26.7680 C   0  0  0  0  0  0  0  0  0  0  0  0
   20.3300   18.9660  -27.1380 C   0  0  0  0  0  0  0  0  0  0  0  0
   20.3220   17.6100  -27.3820 C   0  0  0  0  0  0  0  0  0  0  0  0
   17.9930   17.5130  -26.8850 C   0  0  0  0  0  0  0  0  0  0  0  0
   19.1650   16.8810  -27.2570 C   0  0  0  0  0  0  0  0  0  0  0  0
   19.2040   15.5220  -27.5200 N   0  0  0  0  0  0  0  0  0  0  0  0
   18.1140   14.6720  -27.1210 C   0  0  0  0  0  0  0  0  0  0  0  0
   18.0020   13.6420  -28.2250 C   0  0  0  0  0  0  0  0  0  0  0  0
   19.2120   12.8510  -28.1180 N   0  0  0  0  0  0  0  0  0  0  0  0
   20.4610   13.4980  -27.7850 C   0  0  0  0  0  0  0  0  0  0  0  0
   20.3340   14.9470  -28.2110 C   0  0  0  0  0  0  0  0  0  0  0  0
   19.1380   11.4650  -28.2690 C   0  0  0  0  0  0  0  0  0  0  0  0
   19.3330   10.7390  -27.1140 C   0  0  0  0  0  0  0  0  0  0  0  0
   19.2800    9.3610  -27.1060 C   0  0  0  0  0  0  0  0  0  0  0  0
   19.0200    8.6950  -28.2790 C   0  0  0  0  0  0  0  0  0  0  0  0
   18.9460    7.2010  -28.2760 C   0  0  0  0  0  0  0  0  0  0  0  0
   18.6930    6.5900  -29.3240 O   0  0  0  0  0  0  0  0  0  0  0  0
   19.1160    6.5910  -27.2110 O   0  0  0  0  0  0  0  0  0  0  0  0
   18.8110    9.4140  -29.4400 C   0  0  0  0  0  0  0  0  0  0  0  0
   18.8620   10.7960  -29.4580 C   0  0  0  0  0  0  0  0  0  0  0  0
   18.6540   11.4100  -30.6450 N   0  0  0  0  0  0  0  0  0  0  0  0
   19.5700   11.8610  -31.5060 C   0  0  0  0  0  0  0  0  0  0  0  0
   19.2360   12.2770  -32.6050 O   0  0  0  0  0  0  0  0  0  0  0  0
   21.0380   11.9250  -31.1720 C   0  0  0  0  0  0  0  0  0  0  0  0
   21.9140   12.4140  -32.1270 C   0  0  0  0  0  0  0  0  0  0  0  0
   23.2710   12.5070  -31.8540 C   0  0  0  0  0  0  0  0  0  0  0  0
   23.7560   12.1060  -30.6170 C   0  0  0  0  0  0  0  0  0  0  0  0
   25.0610   12.1780  -30.3370 F   0  0  0  0  0  0  0  0  0  0  0  0
   22.8970   11.6170  -29.6580 C   0  0  0  0  0  0  0  0  0  0  0  0
   21.5530   11.5360  -29.9460 C   0  0  0  0  0  0  0  0  0  0  0  0
  1  2  1  0  0  0  0
  2  4  1  0  0  0  0
  3  2  1  0  0  0  0
  5  2  1  0  0  0  0
  6  5  1  0  0  0  0
  7  6  2  0  0  0  0
  8 10  2  0  0  0  0
  8  7  1  0  0  0  0
  9  5  2  0  0  0  0
 10  9  1  0  0  0  0
 11 10  1  0  0  0  0
 11 12  1  0  0  0  0
 13 14  1  0  0  0  0
 13 12  1  0  0  0  0
 14 15  1  0  0  0  0
 16 15  1  0  0  0  0
 16 11  1  0  0  0  0
 17 14  1  0  0  0  0
 17 18  1  0  0  0  0
 18 19  2  0  0  0  0
 20 21  1  0  0  0  0
 20 19  1  0  0  0  0
 21 23  1  0  0  0  0
 22 21  2  0  0  0  0
 24 20  2  0  0  0  0
 25 24  1  0  0  0  0
 25 17  2  0  0  0  0
 26 25  1  0  0  0  0
 27 29  1  0  0  0  0
 27 26  1  0  0  0  0
 28 27  2  0  0  0  0
 29 35  1  0  0  0  0
 30 31  1  0  0  0  0
 30 29  2  0  0  0  0
 31 32  2  0  0  0  0
 32 33  1  0  0  0  0
 32 34  1  0  0  0  0
 35 34  2  0  0  0  0
M  END
