ligand_pdbs\MBI.pdb
 OpenBabel06092512053D

 33 36  0  0  0  0  0  0  0  0999 V2000
   20.8930   19.1570  -27.5870 C   0  0  0  0  0  0  0  0  0  0  0  0
   19.4140   19.1360  -27.1720 C   0  0  0  0  0  0  0  0  0  0  0  0
   18.9220   20.3690  -26.7710 C   0  0  0  0  0  0  0  0  0  0  0  0
   17.6080   20.4860  -26.3420 C   0  0  0  0  0  0  0  0  0  0  0  0
   16.8010   19.3580  -26.3180 C   0  0  0  0  0  0  0  0  0  0  0  0
   15.1250   19.5270  -25.7810 Cl  0  0  0  0  0  0  0  0  0  0  0  0
   17.2730   18.1160  -26.7200 C   0  0  0  0  0  0  0  0  0  0  0  0
   18.5750   17.9900  -27.1490 C   0  0  0  0  0  0  0  0  0  0  0  0
   18.9660   16.6370  -27.5380 N   0  0  0  0  0  0  0  0  0  0  0  0
   19.8870   16.0040  -26.5980 C   0  0  0  0  0  0  0  0  0  0  0  0
   20.7230   14.8660  -27.2190 C   0  0  0  0  0  0  0  0  0  0  0  0
   19.9880   14.1620  -28.2710 N   0  0  0  0  0  0  0  0  0  0  0  0
   19.4450   15.0490  -29.3200 C   0  0  0  0  0  0  0  0  0  0  0  0
   19.3600   16.5270  -28.9350 C   0  0  0  0  0  0  0  0  0  0  0  0
   20.6600   12.9760  -28.8850 C   0  0  0  0  0  0  0  0  0  0  0  0
   19.8370   12.1070  -29.6350 C   0  0  0  0  0  0  0  0  0  0  0  0
   18.4050   12.4490  -29.6870 N   0  0  0  0  0  0  0  0  0  0  0  0
   17.5150   12.3880  -30.8560 C   0  0  0  0  0  0  0  0  0  0  0  0
   17.9280   11.9930  -31.9110 O   0  0  0  0  0  0  0  0  0  0  0  0
   16.0400   12.8480  -30.6440 C   0  0  0  0  0  0  0  0  0  0  0  0
   15.2230   12.9160  -31.7670 C   0  0  0  0  0  0  0  0  0  0  0  0
   13.8960   13.3170  -31.6590 C   0  0  0  0  0  0  0  0  0  0  0  0
   13.3200   13.6850  -30.4400 C   0  0  0  0  0  0  0  0  0  0  0  0
   11.3910   14.2350  -30.4250 Br  0  0  0  0  0  0  0  0  0  0  0  0
   14.1600   13.6160  -29.2980 C   0  0  0  0  0  0  0  0  0  0  0  0
   15.4960   13.2100  -29.3940 C   0  0  0  0  0  0  0  0  0  0  0  0
   20.3610   10.9880  -30.2530 C   0  0  0  0  0  0  0  0  0  0  0  0
   21.7270   10.7270  -30.1360 C   0  0  0  0  0  0  0  0  0  0  0  0
   22.5600   11.5840  -29.4060 C   0  0  0  0  0  0  0  0  0  0  0  0
   22.0300   12.7110  -28.7770 C   0  0  0  0  0  0  0  0  0  0  0  0
   22.2850    9.4840  -30.8450 C   0  0  0  0  0  0  0  0  0  0  0  0
   22.6840    8.4830  -30.1760 O   0  0  0  0  0  0  0  0  0  0  0  0
   22.3210    9.4810  -32.1130 O   0  0  0  0  0  0  0  0  0  0  0  0
  1  2  1  0  0  0  0
  2  8  2  0  0  0  0
  2  3  1  0  0  0  0
  3  4  2  0  0  0  0
  4  5  1  0  0  0  0
  5  6  1  0  0  0  0
  7  5  2  0  0  0  0
  8  7  1  0  0  0  0
  9  8  1  0  0  0  0
  9 10  1  0  0  0  0
 11 10  1  0  0  0  0
 12 11  1  0  0  0  0
 13 14  1  0  0  0  0
 13 12  1  0  0  0  0
 14  9  1  0  0  0  0
 15 30  1  0  0  0  0
 15 12  1  0  0  0  0
 16 15  2  0  0  0  0
 17 16  1  0  0  0  0
 18 20  1  0  0  0  0
 18 17  1  0  0  0  0
 19 18  2  0  0  0  0
 20 26  1  0  0  0  0
 21 22  1  0  0  0  0
 21 20  2  0  0  0  0
 22 23  2  0  0  0  0
 23 24  1  0  0  0  0
 23 25  1  0  0  0  0
 26 25  2  0  0  0  0
 27 28  2  0  0  0  0
 27 16  1  0  0  0  0
 28 29  1  0  0  0  0
 29 30  2  0  0  0  0
 31 32  1  0  0  0  0
 31 28  1  0  0  0  0
 33 31  2  0  0  0  0
M  END
