ligand_pdbs\MFF.pdb
 OpenBabel06092512053D

 36 36  0  0  1  0  0  0  0  0999 V2000
   20.5370   13.4540  -27.6600 C   0  0  0  0  0  0  0  0  0  0  0  0
   19.5260   15.3660  -26.5080 C   0  0  0  0  0  0  0  0  0  0  0  0
   18.4500   14.4660  -26.0000 C   0  0  0  0  0  0  0  0  0  0  0  0
   19.4960   16.8390  -26.1540 C   0  0  0  0  0  0  0  0  0  0  0  0
   19.2050   17.6670  -27.3990 C   0  0  2  0  0  0  0  0  0  0  0  0
   18.7200   19.0540  -27.1190 C   0  0  0  0  0  0  0  0  0  0  0  0
   18.0860   17.0700  -28.2530 C   0  0  0  0  0  0  0  0  0  0  0  0
   20.4930   14.8610  -27.2720 C   0  0  0  0  0  0  0  0  0  0  0  0
   19.4450   20.1880  -27.1980 C   0  0  0  0  0  0  0  0  0  0  0  0
   20.8970   20.3830  -27.5350 C   0  0  0  0  0  0  0  0  0  0  0  0
   21.2770   21.6690  -27.6670 C   0  0  0  0  0  0  0  0  0  0  0  0
   25.1930   27.0610  -25.5940 O   0  0  0  0  0  0  0  0  0  0  0  0
   24.0070   26.7800  -25.5810 C   0  0  0  0  0  0  0  0  0  0  0  0
   23.0800   27.9310  -25.5130 O   0  0  0  0  0  0  0  0  0  0  0  0
   21.7080   27.8520  -25.1270 C   0  0  0  0  0  0  0  0  0  0  0  0
   23.5840   25.3030  -25.5940 C   0  0  0  0  0  0  0  0  0  0  0  0
   23.8530   24.4600  -26.8740 C   0  0  1  0  0  0  0  0  0  0  0  0
   25.1020   23.6620  -26.8220 N   0  0  0  0  0  0  0  0  0  0  0  0
   22.6510   23.5080  -27.0050 C   0  0  0  0  0  0  0  0  0  0  0  0
   22.6210   22.3160  -27.9900 C   0  0  1  0  0  0  0  0  0  0  0  0
   23.7790   21.4980  -27.8200 O   0  0  0  0  0  0  0  0  0  0  0  0
   18.6090   21.4040  -26.9150 C   0  0  0  0  0  0  0  0  0  0  0  0
   21.4810   13.1110  -28.5130 C   0  0  0  0  0  0  0  0  0  0  0  0
   21.6560   11.7000  -29.0150 C   0  0  2  0  0  0  0  0  0  0  0  0
   23.0760   11.5900  -29.4040 N   0  0  0  0  0  0  0  0  0  0  0  0
   20.8610   11.2970  -30.2600 C   0  0  1  0  0  0  0  0  0  0  0  0
   19.5730   10.7910  -29.9550 O   0  0  0  0  0  0  0  0  0  0  0  0
   19.0130   10.1280  -31.0870 C   0  0  1  0  0  0  0  0  0  0  0  0
   17.6730    9.7470  -30.5660 C   0  0  0  0  0  0  0  0  0  0  0  0
   17.3020    8.4900  -30.6390 C   0  0  0  0  0  0  0  0  0  0  0  0
   15.9780    8.0980  -30.0720 C   0  0  0  0  0  0  0  0  0  0  0  0
   18.9180   11.0070  -32.3340 C   0  0  1  0  0  0  0  0  0  0  0  0
   17.7790   12.0050  -32.1780 C   0  0  0  0  0  0  0  0  0  0  0  0
   20.2330   11.7390  -32.5800 C   0  0  2  0  0  0  0  0  0  0  0  0
   21.2810   10.8280  -32.9670 O   0  0  0  0  0  0  0  0  0  0  0  0
   20.7000   12.4070  -31.2970 C   0  0  0  0  0  0  0  0  0  0  0  0
  1  8  1  0  0  0  0
  2  4  1  0  0  0  0
  2  3  1  0  0  0  0
  5  7  1  1  0  0  0
  5  6  1  0  0  0  0
  5  4  1  0  0  0  0
  8  2  2  0  0  0  0
  9  6  2  0  0  0  0
  9 22  1  0  0  0  0
 10  9  1  0  0  0  0
 11 10  1  0  0  0  0
 12 13  2  0  0  0  0
 13 14  1  0  0  0  0
 14 15  1  0  0  0  0
 16 13  1  0  0  0  0
 17 18  1  1  0  0  0
 17 16  1  0  0  0  0
 19 17  1  0  0  0  0
 20 21  1  1  0  0  0
 20 11  1  0  0  0  0
 20 19  1  0  0  0  0
 23  1  2  0  0  0  0
 24 25  1  6  0  0  0
 24 23  1  0  0  0  0
 26 27  1  0  0  0  0
 26 24  1  1  0  0  0
 28 29  1  1  0  0  0
 28 27  1  0  0  0  0
 30 29  2  0  0  0  0
 30 31  1  0  0  0  0
 32 33  1  1  0  0  0
 32 28  1  0  0  0  0
 34 35  1  1  0  0  0
 34 32  1  0  0  0  0
 34 36  1  0  0  0  0
 36 26  1  0  0  0  0
M  END
