ligand_pdbs\MI8.pdb
 OpenBabel06092512053D

 36 36  0  0  1  0  0  0  0  0999 V2000
   25.0580   24.0570  -27.3940 N   0  0  0  0  0  0  0  0  0  0  0  0
   19.2330   10.0900  -31.5750 C   0  0  1  0  0  0  0  0  0  0  0  0
   20.8350   12.4770  -31.2530 C   0  0  0  0  0  0  0  0  0  0  0  0
   18.0050    9.1820  -31.5670 C   0  0  0  0  0  0  0  0  0  0  0  0
   17.2370    9.0130  -30.4910 C   0  0  0  0  0  0  0  0  0  0  0  0
   17.8810   12.0930  -32.4150 C   0  0  0  0  0  0  0  0  0  0  0  0
   24.8590   27.3530  -26.1650 O   0  0  0  0  0  0  0  0  0  0  0  0
   23.8460   26.7640  -25.8480 C   0  0  0  0  0  0  0  0  0  0  0  0
   22.6390   27.6050  -25.7290 O   0  0  0  0  0  0  0  0  0  0  0  0
   22.6350   28.8170  -24.9580 C   0  0  0  0  0  0  0  0  0  0  0  0
   23.9130   25.2500  -25.5730 C   0  0  0  0  0  0  0  0  0  0  0  0
   23.7360   24.3210  -26.8010 C   0  0  2  0  0  0  0  0  0  0  0  0
   23.1280   22.9380  -26.4690 C   0  0  0  0  0  0  0  0  0  0  0  0
   22.4300   22.1970  -27.6380 C   0  0  1  0  0  0  0  0  0  0  0  0
   23.0820   20.9400  -27.7390 O   0  0  0  0  0  0  0  0  0  0  0  0
   20.9450   21.9500  -27.3880 C   0  0  0  0  0  0  0  0  0  0  0  0
   20.3690   20.7260  -27.4210 C   0  0  0  0  0  0  0  0  0  0  0  0
   18.9120   20.4910  -27.1310 C   0  0  0  0  0  0  0  0  0  0  0  0
   17.9710   21.6100  -26.7780 C   0  0  0  0  0  0  0  0  0  0  0  0
   18.3000   19.2760  -27.1000 C   0  0  0  0  0  0  0  0  0  0  0  0
   18.9610   17.9560  -27.4350 C   0  0  2  0  0  0  0  0  0  0  0  0
   18.1470   17.2580  -28.5180 C   0  0  0  0  0  0  0  0  0  0  0  0
   19.1370   17.0270  -26.2330 C   0  0  0  0  0  0  0  0  0  0  0  0
   20.1760   16.0070  -26.6520 C   0  0  0  0  0  0  0  0  0  0  0  0
   21.6400   16.3140  -26.4360 C   0  0  0  0  0  0  0  0  0  0  0  0
   19.7750   14.8590  -27.2370 C   0  0  0  0  0  0  0  0  0  0  0  0
   20.7390   13.8570  -27.7050 C   0  0  0  0  0  0  0  0  0  0  0  0
   20.3090   12.7770  -28.3410 C   0  0  0  0  0  0  0  0  0  0  0  0
   21.2450   11.7140  -28.8730 C   0  0  1  0  0  0  0  0  0  0  0  0
   21.1630   10.5480  -27.9730 N   0  0  0  0  0  0  0  0  0  0  0  0
   20.8380   11.2930  -30.2910 C   0  0  1  0  0  0  0  0  0  0  0  0
   20.4250   12.0260  -32.6510 C   0  0  1  0  0  0  0  0  0  0  0  0
   21.5070   11.2310  -33.1930 O   0  0  0  0  0  0  0  0  0  0  0  0
   19.1230   11.2150  -32.6260 C   0  0  1  0  0  0  0  0  0  0  0  0
   19.5260   10.6860  -30.3090 O   0  0  0  0  0  0  0  0  0  0  0  0
   16.0490    8.0880  -30.5430 C   0  0  0  0  0  0  0  0  0  0  0  0
  2  4  1  1  0  0  0
  2 35  1  0  0  0  0
  3 31  1  0  0  0  0
  4  5  2  0  0  0  0
  7  8  2  0  0  0  0
  8  9  1  0  0  0  0
  8 11  1  0  0  0  0
  9 10  1  0  0  0  0
 12  1  1  1  0  0  0
 12 13  1  0  0  0  0
 12 11  1  0  0  0  0
 14 15  1  1  0  0  0
 14 16  1  0  0  0  0
 14 13  1  0  0  0  0
 17 16  2  0  0  0  0
 17 18  1  0  0  0  0
 18 20  2  0  0  0  0
 18 19  1  0  0  0  0
 21 22  1  6  0  0  0
 21 20  1  0  0  0  0
 21 23  1  0  0  0  0
 24 25  1  0  0  0  0
 24 23  1  0  0  0  0
 26 24  2  0  0  0  0
 27 26  1  0  0  0  0
 28 27  2  0  0  0  0
 29 28  1  0  0  0  0
 29 30  1  1  0  0  0
 31 29  1  1  0  0  0
 32 33  1  1  0  0  0
 32 34  1  0  0  0  0
 32  3  1  0  0  0  0
 34  6  1  1  0  0  0
 34  2  1  0  0  0  0
 35 31  1  0  0  0  0
 36  5  1  0  0  0  0
M  END
