ligand_pdbs\MPO.pdb
 OpenBabel06092512053D

 13 13  0  0  0  0  0  0  0  0999 V2000
   15.1490  -38.0500  -47.1210 S   0  0  0  0  0  0  0  0  0  0  0  0
   13.7270  -37.8410  -47.0450 O   0  0  0  0  0  0  0  0  0  0  0  0
   15.5130  -39.5150  -47.4890 O   0  0  0  0  0  0  0  0  0  0  0  0
   12.4400  -31.5650  -49.9880 O   0  0  0  0  0  0  0  0  0  0  0  0
   13.3860  -34.2720  -49.6760 N   0  0  0  0  0  0  0  0  0  0  0  0
   15.7620  -37.0600  -48.4700 C   0  0  0  0  0  0  0  0  0  0  0  0
   15.9440  -37.6800  -45.9810 O   0  0  0  0  0  0  0  0  0  0  0  0
   14.6660  -36.4070  -49.2940 C   0  0  0  0  0  0  0  0  0  0  0  0
   14.1960  -35.0820  -48.7420 C   0  0  0  0  0  0  0  0  0  0  0  0
   14.2350  -33.1780  -50.1820 C   0  0  0  0  0  0  0  0  0  0  0  0
   13.4350  -32.0960  -50.8480 C   0  0  0  0  0  0  0  0  0  0  0  0
   11.5260  -32.5910  -49.6290 C   0  0  0  0  0  0  0  0  0  0  0  0
   12.1940  -33.7650  -48.9590 C   0  0  0  0  0  0  0  0  0  0  0  0
  1  2  1  0  0  0  0
  1  7  1  0  0  0  0
  3  1  1  0  0  0  0
  4 12  1  0  0  0  0
  5 13  1  0  0  0  0
  5  9  1  0  0  0  0
  6  1  1  0  0  0  0
  8  9  1  0  0  0  0
  8  6  1  0  0  0  0
 10  5  1  0  0  0  0
 11 10  1  0  0  0  0
 11  4  1  0  0  0  0
 12 13  1  0  0  0  0
M  END
