ligand_pdbs\MSE.pdb
 OpenBabel06092512053D

  8  7  0  0  1  0  0  0  0  0999 V2000
  -41.7700  131.6090   85.9990 N   0  0  0  0  0  0  0  0  0  0  0  0
  -42.5020  130.3540   86.1490 C   0  0  2  0  0  0  0  0  0  0  0  0
  -41.6510  129.1490   85.7480 C   0  0  0  0  0  0  0  0  0  0  0  0
  -41.6290  128.1320   86.4450 O   0  0  0  0  0  0  0  0  0  0  0  0
  -43.7860  130.3720   85.3080 C   0  0  0  0  0  0  0  0  0  0  0  0
  -43.5670  130.6370   83.8200 C   0  0  0  0  0  0  0  0  0  0  0  0
  -44.9790  130.1540   82.7790 Se  0  0  0  0  0  0  0  0  0  0  0  0
  -46.2330  131.3550   83.2920 C   0  0  0  0  0  0  0  0  0  0  0  0
  2  1  1  6  0  0  0
  3  2  1  0  0  0  0
  3  4  2  0  0  0  0
  5  2  1  0  0  0  0
  6  5  1  0  0  0  0
  7  8  1  0  0  0  0
  7  6  1  0  0  0  0
M  END
