ligand_pdbs\MTA.pdb
 OpenBabel06092512053D

 20 22  0  0  1  0  0  0  0  0999 V2000
  -21.4870  -98.7160   -6.7590 C   0  0  0  0  0  0  0  0  0  0  0  0
  -19.9560  -97.7640   -6.5350 S   0  0  0  0  0  0  0  0  0  0  0  0
  -18.6980  -99.0320   -6.1990 C   0  0  0  0  0  0  0  0  0  0  0  0
  -18.9540  -99.8940   -4.9300 C   0  0  1  0  0  0  0  0  0  0  0  0
  -17.9340 -100.8890   -4.8180 O   0  0  0  0  0  0  0  0  0  0  0  0
  -17.5330  -99.4050   -3.0450 C   0  0  2  0  0  0  0  0  0  0  0  0
  -17.4080  -99.3420   -1.6300 O   0  0  0  0  0  0  0  0  0  0  0  0
  -18.9380  -99.1310   -3.5930 C   0  0  2  0  0  0  0  0  0  0  0  0
  -19.9560  -99.5570   -2.7040 O   0  0  0  0  0  0  0  0  0  0  0  0
  -17.3180 -100.8240   -3.5740 C   0  0  2  0  0  0  0  0  0  0  0  0
  -15.8810 -101.1480   -3.7470 N   0  0  0  0  0  0  0  0  0  0  0  0
  -14.9330 -100.4640   -4.4510 C   0  0  0  0  0  0  0  0  0  0  0  0
  -13.7500 -101.0290   -4.4630 N   0  0  0  0  0  0  0  0  0  0  0  0
  -13.9170 -102.1990   -3.7330 C   0  0  0  0  0  0  0  0  0  0  0  0
  -13.0530 -103.2620   -3.3600 C   0  0  0  0  0  0  0  0  0  0  0  0
  -11.7570 -103.2950   -3.7210 N   0  0  0  0  0  0  0  0  0  0  0  0
  -13.5670 -104.3010   -2.6500 N   0  0  0  0  0  0  0  0  0  0  0  0
  -14.8760 -104.2920   -2.3170 C   0  0  0  0  0  0  0  0  0  0  0  0
  -15.8050 -103.3450   -2.5900 N   0  0  0  0  0  0  0  0  0  0  0  0
  -15.2740 -102.3240   -3.3410 C   0  0  0  0  0  0  0  0  0  0  0  0
  1  2  1  0  0  0  0
  2  3  1  0  0  0  0
  4  3  1  6  0  0  0
  4  5  1  0  0  0  0
  4  8  1  0  0  0  0
  5 10  1  0  0  0  0
  6  7  1  1  0  0  0
  8  6  1  0  0  0  0
  8  9  1  1  0  0  0
 10 11  1  6  0  0  0
 10  6  1  0  0  0  0
 11 20  1  0  0  0  0
 12 11  1  0  0  0  0
 13 12  1  0  0  0  0
 13 14  2  0  0  0  0
 14 15  1  0  0  0  0
 14 20  1  0  0  0  0
 15 17  2  0  0  0  0
 16 15  1  0  0  0  0
 17 18  1  0  0  0  0
 19 18  1  0  0  0  0
 20 19  2  0  0  0  0
M  END
