ligand_pdbs\MXD.pdb
 OpenBabel06092512053D

 15 16  0  0  0  0  0  0  0  0999 V2000
   -3.0690    3.3690   -4.6760 N   0  0  0  0  0  0  0  0  0  0  0  0
   -2.7490    2.0960   -4.9860 C   0  0  0  0  0  0  0  0  0  0  0  0
   -2.8400    1.6990   -6.3170 C   0  0  0  0  0  0  0  0  0  0  0  0
   -2.3220    1.1650   -4.0030 N   0  3  0  0  0  0  0  0  0  0  0  0
   -2.2470    1.5200   -2.8020 O   0  5  0  0  0  0  0  0  0  0  0  0
   -2.0140   -0.0970   -4.4020 C   0  0  0  0  0  0  0  0  0  0  0  0
   -1.6040   -1.0260   -3.4990 N   0  0  0  0  0  0  0  0  0  0  0  0
   -2.1150   -0.4800   -5.7110 N   0  0  0  0  0  4  0  0  0  0  0  0
   -2.5290    0.3820   -6.6910 C   0  0  0  0  0  0  0  0  0  0  0  0
   -2.6100    0.0190   -8.0780 N   0  0  0  0  0  0  0  0  0  0  0  0
   -3.5800    0.8420   -8.8510 C   0  0  0  0  0  0  0  0  0  0  0  0
   -2.8180   -1.4130   -8.3840 C   0  0  0  0  0  0  0  0  0  0  0  0
   -2.5010   -1.6410   -9.8770 C   0  0  0  0  0  0  0  0  0  0  0  0
   -2.2140   -0.3360  -10.6560 C   0  0  0  0  0  0  0  0  0  0  0  0
   -3.2120    0.7970  -10.3380 C   0  0  0  0  0  0  0  0  0  0  0  0
  2  1  1  0  0  0  0
  2  4  1  0  0  0  0
  3  2  2  0  0  0  0
  4  5  1  0  0  0  0
  6  4  1  0  0  0  0
  6  7  1  0  0  0  0
  8  6  2  0  0  0  0
  9  3  1  0  0  0  0
  9  8  2  0  0  0  0
 10  9  1  0  0  0  0
 11 10  1  0  0  0  0
 12 10  1  0  0  0  0
 13 12  1  0  0  0  0
 14 15  1  0  0  0  0
 14 13  1  0  0  0  0
 15 11  1  0  0  0  0
M  CHG  2   4   1   5  -1
M  END
