ligand_pdbs\N5X.pdb
 OpenBabel06092512053D

 33 36  0  0  0  0  0  0  0  0999 V2000
   11.3540   14.5330  -30.4620 Cl  0  0  0  0  0  0  0  0  0  0  0  0
   13.1100   14.0530  -30.4260 C   0  0  0  0  0  0  0  0  0  0  0  0
   13.7030   13.7890  -31.6560 C   0  0  0  0  0  0  0  0  0  0  0  0
   15.0190   13.4170  -31.7500 C   0  0  0  0  0  0  0  0  0  0  0  0
   13.8880   13.9260  -29.2560 C   0  0  0  0  0  0  0  0  0  0  0  0
   15.2270   13.5630  -29.3350 C   0  0  0  0  0  0  0  0  0  0  0  0
   15.7600   13.2900  -30.5930 C   0  0  0  0  0  0  0  0  0  0  0  0
   17.1780   12.9520  -30.7730 C   0  0  0  0  0  0  0  0  0  0  0  0
   17.6090   12.4440  -31.8030 O   0  0  0  0  0  0  0  0  0  0  0  0
   17.8880   13.3510  -29.7440 N   0  0  0  0  0  0  0  0  0  0  0  0
   19.2580   13.2250  -29.6480 C   0  0  0  0  0  0  0  0  0  0  0  0
   19.9050   12.2200  -30.3300 C   0  0  0  0  0  0  0  0  0  0  0  0
   21.2660   12.1370  -30.2210 C   0  0  0  0  0  0  0  0  0  0  0  0
   21.9020   11.0390  -30.9850 C   0  0  0  0  0  0  0  0  0  0  0  0
   22.8380   10.3700  -30.4970 O   0  0  0  0  0  0  0  0  0  0  0  0
   21.4300   10.8480  -32.1230 O   0  0  0  0  0  0  0  0  0  0  0  0
   22.0080   13.0360  -29.4570 C   0  0  0  0  0  0  0  0  0  0  0  0
   21.3550   14.0570  -28.7780 C   0  0  0  0  0  0  0  0  0  0  0  0
   19.9640   14.1530  -28.8680 C   0  0  0  0  0  0  0  0  0  0  0  0
   19.2960   15.1820  -28.1940 N   0  0  0  0  0  0  0  0  0  0  0  0
   19.7000   15.5710  -26.8560 C   0  0  0  0  0  0  0  0  0  0  0  0
   20.0710   17.0150  -27.0930 C   0  0  0  0  0  0  0  0  0  0  0  0
   18.2160   15.9270  -28.8540 C   0  0  0  0  0  0  0  0  0  0  0  0
   17.6610   16.9620  -27.8930 C   0  0  0  0  0  0  0  0  0  0  0  0
   18.8250   17.7120  -27.4430 N   0  0  0  0  0  0  0  0  0  0  0  0
   18.7920   19.1100  -27.3870 C   0  0  0  0  0  0  0  0  0  0  0  0
   19.9860   19.7780  -27.7600 C   0  0  0  0  0  0  0  0  0  0  0  0
   17.6660   19.8530  -26.9720 C   0  0  0  0  0  0  0  0  0  0  0  0
   16.3270   19.2980  -26.5380 C   0  0  0  0  0  0  0  0  0  0  0  0
   17.7720   21.2420  -26.9730 C   0  0  0  0  0  0  0  0  0  0  0  0
   18.9600   21.8880  -27.3590 C   0  0  0  0  0  0  0  0  0  0  0  0
   20.0920   21.1680  -27.7450 C   0  0  0  0  0  0  0  0  0  0  0  0
   21.3710   21.8850  -28.1460 C   0  0  0  0  0  0  0  0  0  0  0  0
  1  2  1  0  0  0  0
  2  5  1  0  0  0  0
  3  2  2  0  0  0  0
  4  3  1  0  0  0  0
  4  7  2  0  0  0  0
  6  5  2  0  0  0  0
  7  6  1  0  0  0  0
  8  7  1  0  0  0  0
  8 10  1  0  0  0  0
  9  8  2  0  0  0  0
 10 11  1  0  0  0  0
 11 19  1  0  0  0  0
 12 13  1  0  0  0  0
 12 11  2  0  0  0  0
 13 17  2  0  0  0  0
 14 15  1  0  0  0  0
 14 13  1  0  0  0  0
 16 14  2  0  0  0  0
 17 18  1  0  0  0  0
 19 18  2  0  0  0  0
 19 20  1  0  0  0  0
 20 21  1  0  0  0  0
 22 21  1  0  0  0  0
 23 20  1  0  0  0  0
 23 24  1  0  0  0  0
 24 25  1  0  0  0  0
 25 26  1  0  0  0  0
 25 22  1  0  0  0  0
 26 28  1  0  0  0  0
 27 32  1  0  0  0  0
 27 26  2  0  0  0  0
 28 29  1  0  0  0  0
 30 28  2  0  0  0  0
 31 30  1  0  0  0  0
 32 31  2  0  0  0  0
 33 32  1  0  0  0  0
M  END
