ligand_pdbs\NK.pdb
 OpenBabel06092512053D

  9  9  0  0  0  0  0  0  0  0999 V2000
   28.7900   29.3200   28.5950 O   0  0  0  0  0  0  0  0  0  0  0  0
   28.6290   30.4370   29.0450 C   0  0  0  0  0  0  0  0  0  0  0  0
   29.0650   31.6930   28.2780 C   0  0  0  0  0  0  0  0  0  0  0  0
   29.1600   31.6650   26.8990 C   0  0  0  0  0  0  0  0  0  0  0  0
   29.5500   32.7980   26.1970 C   0  0  0  0  0  0  0  0  0  0  0  0
   29.8480   33.9690   26.8870 C   0  0  0  0  0  0  0  0  0  0  0  0
   29.7540   33.9990   28.2730 C   0  0  0  0  0  0  0  0  0  0  0  0
   29.3640   32.8640   28.9730 C   0  0  0  0  0  0  0  0  0  0  0  0
   29.2750   32.8980   30.3190 O   0  0  0  0  0  0  0  0  0  0  0  0
  1  2  2  0  0  0  0
  3  8  1  0  0  0  0
  3  2  1  0  0  0  0
  4  3  2  0  0  0  0
  5  6  2  0  0  0  0
  5  4  1  0  0  0  0
  6  7  1  0  0  0  0
  7  8  2  0  0  0  0
  8  9  1  0  0  0  0
M  END
