ligand_pdbs\NO3.pdb
 OpenBabel06092512053D

  4  3  0  0  0  0  0  0  0  0999 V2000
    4.1310   30.2790   37.1350 N   0  0  0  0  0  0  0  0  0  0  0  0
    3.0010   30.3880   36.6640 O   0  0  0  0  0  0  0  0  0  0  0  0
    5.1430   29.6870   36.3650 O   0  0  0  0  0  0  0  0  0  0  0  0
    4.4140   30.7460   38.4290 O   0  0  0  0  0  0  0  0  0  0  0  0
  1  4  1  0  0  0  0
  2  1  2  0  0  0  0
  3  1  2  0  0  0  0
M  END
