ligand_pdbs\NXF.pdb
 OpenBabel06092512053D

 35 40  0  0  1  0  0  0  0  0999 V2000
  -34.2160  -49.2360   -9.5480 N   0  0  0  0  0  0  0  0  0  0  0  0
  -30.3290  -50.4840  -12.7090 N   0  0  0  0  0  0  0  0  0  0  0  0
  -29.8290  -50.5440  -10.1860 C   0  0  0  0  0  0  0  0  0  0  0  0
  -27.5770  -51.5140   -7.4650 C   0  0  0  0  0  0  0  0  0  0  0  0
  -30.1010  -50.5140  -11.5900 C   0  0  0  0  0  0  0  0  0  0  0  0
  -33.1330  -50.0210   -9.3080 N   0  0  0  0  0  0  0  0  0  0  0  0
  -30.6770  -50.0060   -9.2460 C   0  0  0  0  0  0  0  0  0  0  0  0
  -27.9640  -47.7170  -12.0670 O   0  0  0  0  0  0  0  0  0  0  0  0
  -28.6360  -51.0150   -8.2350 C   0  0  0  0  0  0  0  0  0  0  0  0
  -31.9560  -49.3540   -9.4590 C   0  0  0  0  0  0  0  0  0  0  0  0
  -28.6580  -51.1220   -9.6250 C   0  0  0  0  0  0  0  0  0  0  0  0
  -32.3190  -48.0710   -9.8130 C   0  0  0  0  0  0  0  0  0  0  0  0
  -27.5680  -51.7550  -10.2630 C   0  0  0  0  0  0  0  0  0  0  0  0
  -26.5210  -52.1330   -8.1050 C   0  0  0  0  0  0  0  0  0  0  0  0
  -33.2780  -51.4200   -8.9390 C   0  0  0  0  0  0  0  0  0  0  0  0
  -31.4540  -46.9270  -10.0900 C   0  0  0  0  0  0  0  0  0  0  0  0
  -33.7140  -48.0670   -9.8470 C   0  0  0  0  0  0  0  0  0  0  0  0
  -26.5180  -52.2520   -9.5100 C   0  0  0  0  0  0  0  0  0  0  0  0
  -31.8990  -45.6240   -9.8960 C   0  0  0  0  0  0  0  0  0  0  0  0
  -30.1490  -47.1070  -10.5570 C   0  0  0  0  0  0  0  0  0  0  0  0
  -31.0760  -44.5050  -10.1530 C   0  0  0  0  0  0  0  0  0  0  0  0
  -29.2970  -46.0440  -10.8190 C   0  0  0  0  0  0  0  0  0  0  0  0
  -29.7520  -44.7050  -10.6260 C   0  0  0  0  0  0  0  0  0  0  0  0
  -27.9240  -46.4770  -11.3360 C   0  0  1  0  0  0  0  0  0  0  0  0
  -31.5610  -43.1490   -9.9430 C   0  0  0  0  0  0  0  0  0  0  0  0
  -28.9620  -43.4940  -10.8680 C   0  0  0  0  0  0  0  0  0  0  0  0
  -32.9750  -42.8900   -9.4340 C   0  0  0  0  0  0  0  0  0  0  0  0
  -26.7570  -46.6210  -10.3650 C   0  0  0  0  0  0  0  0  0  0  0  0
  -26.6600  -48.3650  -12.0230 C   0  0  0  0  0  0  0  0  0  0  0  0
  -25.7630  -47.5450  -11.0840 C   0  0  0  0  0  0  0  0  0  0  0  0
  -30.8310  -42.1090  -10.1710 N   0  0  0  0  0  0  0  0  0  0  0  0
  -29.5500  -42.2750  -10.6260 N   0  0  0  0  0  0  0  0  0  0  0  0
  -33.6600  -41.6140   -9.9190 N   0  0  0  0  0  0  0  0  0  0  0  0
  -27.8010  -43.3830  -11.2740 O   0  0  0  0  0  0  0  0  0  0  0  0
  -30.0490  -50.2110   -7.6420 S   0  0  0  0  0  0  0  0  0  0  0  0
  1  6  1  0  0  0  0
  2  5  3  0  0  0  0
  3 11  1  0  0  0  0
  3  7  2  0  0  0  0
  5  3  1  0  0  0  0
  6 15  1  0  0  0  0
  7 35  1  0  0  0  0
  8 29  1  0  0  0  0
  8 24  1  0  0  0  0
  9 35  1  0  0  0  0
  9  4  2  0  0  0  0
 10  6  1  0  0  0  0
 10  7  1  0  0  0  0
 11  9  1  0  0  0  0
 12 10  2  0  0  0  0
 13 11  2  0  0  0  0
 13 18  1  0  0  0  0
 14  4  1  0  0  0  0
 16 19  1  0  0  0  0
 16 12  1  0  0  0  0
 17 12  1  0  0  0  0
 17  1  2  0  0  0  0
 18 14  2  0  0  0  0
 20 16  2  0  0  0  0
 21 25  1  0  0  0  0
 21 19  2  0  0  0  0
 22 23  2  0  0  0  0
 22 20  1  0  0  0  0
 23 21  1  0  0  0  0
 24 22  1  1  0  0  0
 24 28  1  0  0  0  0
 25 27  1  0  0  0  0
 26 23  1  0  0  0  0
 26 32  2  0  0  0  0
 29 30  1  0  0  0  0
 30 28  1  0  0  0  0
 31 25  2  0  0  0  0
 32 31  1  0  0  0  0
 33 27  1  0  0  0  0
 34 26  2  0  0  0  0
M  END
