ligand_pdbs\ODN.pdb
 OpenBabel06092512053D

 26 30  0  0  1  0  0  0  0  0999 V2000
   21.6100   22.4800  -28.5420 O   0  0  0  0  0  0  0  0  0  0  0  0
   22.7980   22.4560  -28.3120 C   0  0  0  0  0  0  0  0  0  0  0  0
   23.4430   21.4600  -27.4280 C   0  0  2  0  0  0  0  0  0  0  0  0
   22.5320   20.9890  -26.3190 C   0  0  2  0  0  0  0  0  0  0  0  0
   21.9180   22.1660  -25.7850 O   0  0  0  0  0  0  0  0  0  0  0  0
   23.3830   20.2680  -25.4110 O   0  0  0  0  0  0  0  0  0  0  0  0
   24.1490   19.2260  -26.0290 C   0  0  0  0  0  0  0  0  0  0  0  0
   21.4120   20.0610  -26.7770 C   0  0  1  0  0  0  0  0  0  0  0  0
   20.4910   20.7210  -27.6540 O   0  0  0  0  0  0  0  0  0  0  0  0
   22.0610   18.8100  -27.3930 C   0  0  2  0  0  0  0  0  0  0  0  0
   21.5860   17.5380  -26.6510 C   0  0  0  0  0  0  0  0  0  0  0  0
   20.2450   17.0680  -27.2260 C   0  0  0  0  0  0  0  0  0  0  0  0
   21.3810   17.7590  -25.1500 C   0  0  0  0  0  0  0  0  0  0  0  0
   22.6130   16.4000  -26.7710 C   0  0  0  0  0  0  0  0  0  0  0  0
   23.4850   16.4760  -28.0190 C   0  0  0  0  0  0  0  0  0  0  0  0
   23.7970   23.4100  -28.8420 C   0  0  2  0  0  0  0  0  0  0  0  0
   23.7620   23.3470  -30.3500 C   0  0  0  0  0  0  0  0  0  0  0  0
   25.0900   22.9350  -28.1810 C   0  0  1  0  0  0  0  0  0  0  0  0
   24.5990   22.3030  -26.9120 C   0  0  1  0  0  0  0  0  0  0  0  0
   24.1460   23.3300  -26.0300 O   0  0  0  0  0  0  0  0  0  0  0  0
   25.8970   21.8740  -28.9240 C   0  0  0  0  0  0  0  0  0  0  0  0
   25.3800   20.4360  -28.7280 C   0  0  0  0  0  0  0  0  0  0  0  0
   23.9170   20.2710  -28.2610 C   0  0  1  0  0  0  0  0  0  0  0  0
   23.6080   18.9840  -27.4450 C   0  0  1  0  0  0  0  0  0  0  0  0
   24.3050   17.7640  -28.0880 C   0  0  1  0  0  0  0  0  0  0  0  0
   25.5820   17.5210  -27.4750 O   0  0  0  0  0  0  0  0  0  0  0  0
  1  2  2  0  0  0  0
  3  2  1  6  0  0  0
  3 19  1  0  0  0  0
  3  4  1  0  0  0  0
  4  5  1  1  0  0  0
  4  6  1  0  0  0  0
  7  6  1  0  0  0  0
  8  9  1  6  0  0  0
  8  4  1  0  0  0  0
 10  8  1  0  0  0  0
 10 11  1  1  0  0  0
 11 13  1  0  0  0  0
 12 11  1  0  0  0  0
 14 11  1  0  0  0  0
 15 14  1  0  0  0  0
 16 17  1  6  0  0  0
 16  2  1  0  0  0  0
 16 18  1  0  0  0  0
 18 21  1  6  0  0  0
 18 19  1  0  0  0  0
 19 20  1  1  0  0  0
 21 22  1  0  0  0  0
 23 22  1  1  0  0  0
 23 24  1  0  0  0  0
 23  3  1  0  0  0  0
 24 10  1  0  0  0  0
 24  7  1  1  0  0  0
 25 15  1  0  0  0  0
 25 26  1  1  0  0  0
 25 24  1  0  0  0  0
M  END
