ligand_pdbs\P2R.pdb
 OpenBabel06092512053D

 57 61  0  0  1  0  0  0  0  0999 V2000
  147.8650  125.5190  120.3770 N   0  0  0  0  0  0  0  0  0  0  0  0
  152.2990  115.7760  122.4180 N   0  0  0  0  0  4  0  0  0  0  0  0
  148.5050  123.8020  118.9160 C   0  0  0  0  0  0  0  0  0  0  0  0
  147.6880  124.8690  119.0820 C   0  0  0  0  0  0  0  0  0  0  0  0
  146.6280  125.4490  118.0880 C   0  0  0  0  0  0  0  0  0  0  0  0
  149.3160  123.6300  120.1260 C   0  0  0  0  0  0  0  0  0  0  0  0
  148.8840  124.7160  120.9840 C   0  0  0  0  0  0  0  0  0  0  0  0
  150.9140  122.9450  122.0030 C   0  0  0  0  0  0  0  0  0  0  0  0
  151.9730  121.9500  122.5250 C   0  0  0  0  0  0  0  0  0  0  0  0
  153.6410  119.1810  121.2870 C   0  0  0  0  0  0  0  0  0  0  0  0
  152.7600  116.8150  121.5710 C   0  0  0  0  0  0  0  0  0  0  0  0
  153.7120  118.9260  119.8260 C   0  0  0  0  0  0  0  0  0  0  0  0
  151.9220  114.5280  121.9250 C   0  0  0  0  0  0  0  0  0  0  0  0
  152.0020  114.2910  120.4610 C   0  0  0  0  0  0  0  0  0  0  0  0
  147.2000  126.6670  120.9560 C   0  0  0  0  0  0  0  0  0  0  0  0
  146.1950  124.3700  117.0330 C   0  0  0  0  0  0  0  0  0  0  0  0
  151.9230  121.5210  123.6660 O   0  0  0  0  0  0  0  0  0  0  0  0
  147.3690  123.5270  116.4750 C   0  0  0  0  0  0  0  0  0  0  0  0
  152.9940  121.5260  121.6520 N   0  0  0  0  0  0  0  0  0  0  0  0
  145.1870  125.3420  121.4000 O   0  0  0  0  0  0  0  0  0  0  0  0
  148.4200  123.0120  117.5730 C   0  0  0  0  0  0  0  0  0  0  0  0
  151.4910  113.5390  122.7820 N   0  0  0  0  0  0  0  0  0  0  0  0
  150.3360  122.7890  120.7030 C   0  0  0  0  0  0  0  0  0  0  0  0
  150.4410  124.0640  122.8010 C   0  0  0  0  0  0  0  0  0  0  0  0
  149.4400  124.9580  122.3340 C   0  0  0  0  0  0  0  0  0  0  0  0
  154.0820  120.5740  121.8240 C   0  0  0  0  0  0  0  0  0  0  0  0
  153.1680  118.1320  122.0970 C   0  0  0  0  0  0  0  0  0  0  0  0
  152.8540  116.6080  120.0940 C   0  0  1  0  0  0  0  0  0  0  0  0
  153.3360  117.7040  119.2790 C   0  0  0  0  0  0  0  0  0  0  0  0
  152.4440  115.2920  119.6180 C   0  0  0  0  0  0  0  0  0  0  0  0
  146.0640  126.2530  121.9600 C   0  0  0  0  0  0  0  0  0  0  0  0
  145.7570  125.7670  118.6240 H   0  0  0  0  0  0  0  0  0  0  0  0
  147.0500  126.2960  117.5850 H   0  0  0  0  0  0  0  0  0  0  0  0
  154.0510  119.6710  119.1940 H   0  0  0  0  0  0  0  0  0  0  0  0
  151.7260  113.3760  120.0690 H   0  0  0  0  0  0  0  0  0  0  0  0
  146.7490  127.2440  120.1760 H   0  0  0  0  0  0  0  0  0  0  0  0
  147.9150  127.2600  121.4890 H   0  0  0  0  0  0  0  0  0  0  0  0
  145.5030  123.6990  117.5070 H   0  0  0  0  0  0  0  0  0  0  0  0
  145.7110  124.8660  116.2150 H   0  0  0  0  0  0  0  0  0  0  0  0
  147.9060  124.1480  115.7830 H   0  0  0  0  0  0  0  0  0  0  0  0
  146.9540  122.6680  115.9860 H   0  0  0  0  0  0  0  0  0  0  0  0
  152.9490  121.9280  120.7540 H   0  0  0  0  0  0  0  0  0  0  0  0
  145.6850  124.6890  120.8780 H   0  0  0  0  0  0  0  0  0  0  0  0
  149.3930  123.0760  117.1260 H   0  0  0  0  0  0  0  0  0  0  0  0
  148.1720  121.9970  117.8140 H   0  0  0  0  0  0  0  0  0  0  0  0
  151.7140  112.5810  122.5920 H   0  0  0  0  0  0  0  0  0  0  0  0
  151.1390  113.7840  123.6660 H   0  0  0  0  0  0  0  0  0  0  0  0
  150.6640  121.9980  120.1240 H   0  0  0  0  0  0  0  0  0  0  0  0
  150.8340  124.2130  123.7400 H   0  0  0  0  0  0  0  0  0  0  0  0
  149.1160  125.7400  122.9210 H   0  0  0  0  0  0  0  0  0  0  0  0
  154.9070  120.9210  121.2310 H   0  0  0  0  0  0  0  0  0  0  0  0
  154.3310  120.4980  122.8660 H   0  0  0  0  0  0  0  0  0  0  0  0
  153.1080  118.2880  123.1170 H   0  0  0  0  0  0  0  0  0  0  0  0
  153.4060  117.5780  118.2560 H   0  0  0  0  0  0  0  0  0  0  0  0
  152.4860  115.0960  118.6050 H   0  0  0  0  0  0  0  0  0  0  0  0
  145.5110  127.1280  122.2330 H   0  0  0  0  0  0  0  0  0  0  0  0
  146.5020  125.8160  122.8350 H   0  0  0  0  0  0  0  0  0  0  0  0
  1 15  1  0  0  0  0
  1  7  1  0  0  0  0
  3  4  2  0  0  0  0
  3  6  1  0  0  0  0
  4  1  1  0  0  0  0
  5 32  1  0  0  0  0
  5  4  1  0  0  0  0
  6 23  2  0  0  0  0
  6  7  1  0  0  0  0
  7 25  2  0  0  0  0
  8  9  1  0  0  0  0
  8 24  2  0  0  0  0
  9 17  2  0  0  0  0
 10 26  1  0  0  0  0
 10 27  2  0  0  0  0
 11 27  1  0  0  0  0
 11  2  2  0  0  0  0
 12 10  1  0  0  0  0
 13  2  2  0  0  0  0
 13 22  1  0  0  0  0
 14 13  1  0  0  0  0
 15 37  1  0  0  0  0
 15 31  1  0  0  0  0
 16 38  1  0  0  0  0
 16  5  1  0  0  0  0
 18 16  1  0  0  0  0
 18 21  1  0  0  0  0
 19 26  1  0  0  0  0
 19  9  1  0  0  0  0
 20 31  1  0  0  0  0
 21 45  1  0  0  0  0
 21  3  1  0  0  0  0
 22 47  1  0  0  0  0
 23  8  1  0  0  0  0
 24 49  1  0  0  0  0
 25 24  1  0  0  0  0
 25 50  1  0  0  0  0
 26 52  1  0  0  0  0
 27 53  1  0  0  0  0
 28 29  1  1  0  0  0
 28 11  1  0  0  0  0
 29 12  2  0  0  0  0
 30 28  1  0  0  0  0
 30 14  2  0  0  0  0
 31 56  1  0  0  0  0
 31 57  1  0  0  0  0
 33  5  1  0  0  0  0
 34 12  1  0  0  0  0
 35 14  1  0  0  0  0
 36 15  1  0  0  0  0
 39 16  1  0  0  0  0
 40 18  1  0  0  0  0
 41 18  1  0  0  0  0
 42 19  1  0  0  0  0
 43 20  1  0  0  0  0
 44 21  1  0  0  0  0
 46 22  1  0  0  0  0
 48 23  1  0  0  0  0
 51 26  1  0  0  0  0
 54 29  1  0  0  0  0
 55 30  1  0  0  0  0
M  END
