ligand_pdbs\PEG.pdb
 OpenBabel06092512053D

  7  6  0  0  0  0  0  0  0  0999 V2000
   81.5740  -94.2710  -17.9390 C   0  0  0  0  0  0  0  0  0  0  0  0
   81.0740  -95.3520  -18.7250 O   0  0  0  0  0  0  0  0  0  0  0  0
   83.0990  -94.2370  -18.0450 C   0  0  0  0  0  0  0  0  0  0  0  0
   83.6300  -93.1590  -17.2680 O   0  0  0  0  0  0  0  0  0  0  0  0
   85.0450  -93.1280  -17.4500 C   0  0  0  0  0  0  0  0  0  0  0  0
   85.6380  -91.9350  -16.7040 C   0  0  0  0  0  0  0  0  0  0  0  0
   87.0480  -91.9060  -16.9090 O   0  0  0  0  0  0  0  0  0  0  0  0
  2  1  1  0  0  0  0
  3  1  1  0  0  0  0
  3  4  1  0  0  0  0
  5  4  1  0  0  0  0
  5  6  1  0  0  0  0
  7  6  1  0  0  0  0
M  END
