ligand_pdbs\PGE.pdb
 OpenBabel06092512053D

 10  9  0  0  0  0  0  0  0  0999 V2000
  -63.7230  -16.5600   59.4310 C   0  0  0  0  0  0  0  0  0  0  0  0
  -64.7490  -15.5700   59.6450 O   0  0  0  0  0  0  0  0  0  0  0  0
  -63.4540  -17.2540   60.7770 C   0  0  0  0  0  0  0  0  0  0  0  0
  -62.1530  -17.8740   60.8760 O   0  0  0  0  0  0  0  0  0  0  0  0
  -61.4710  -17.4210   62.0800 C   0  0  0  0  0  0  0  0  0  0  0  0
  -60.0610  -18.0030   62.3330 C   0  0  0  0  0  0  0  0  0  0  0  0
  -57.9680  -20.8450   63.8500 O   0  0  0  0  0  0  0  0  0  0  0  0
  -59.2850  -20.5290   64.3570 C   0  0  0  0  0  0  0  0  0  0  0  0
  -60.3400  -20.3320   63.2580 C   0  0  0  0  0  0  0  0  0  0  0  0
  -59.9320  -19.4400   62.1670 O   0  0  0  0  0  0  0  0  0  0  0  0
  1  2  1  0  0  0  0
  1  3  1  0  0  0  0
  3  4  1  0  0  0  0
  4  5  1  0  0  0  0
  5  6  1  0  0  0  0
  7  8  1  0  0  0  0
  9  8  1  0  0  0  0
 10  6  1  0  0  0  0
 10  9  1  0  0  0  0
M  END
