ligand_pdbs\PK1.pdb
 OpenBabel06092512053D

 24 26  0  0  1  0  0  0  0  0999 V2000
   28.2210   -0.0100    3.5200 N   0  0  0  0  0  0  0  0  0  0  0  0
   30.6190    0.5980    3.8530 C   0  0  0  0  0  0  0  0  0  0  0  0
   28.3000   -1.3720    2.9440 C   0  0  0  0  0  0  0  0  0  0  0  0
   29.3260    2.6340    5.4460 O   0  0  0  0  0  0  0  0  0  0  0  0
   28.7300    1.8880    4.7210 C   0  0  0  0  0  0  0  0  0  0  0  0
   26.0430    0.8710    2.4310 S   0  0  0  0  0  0  0  0  0  0  0  0
   27.2160    0.9860    3.2720 C   0  0  0  0  0  0  0  0  0  0  0  0
   29.1860    0.5440    4.4550 C   0  0  1  0  0  0  0  0  0  0  0  0
   29.2090   -0.1930    5.8070 C   0  0  0  0  0  0  0  0  0  0  0  0
   30.3040   -0.0430    6.6470 C   0  0  0  0  0  0  0  0  0  0  0  0
   30.3400   -0.7020    7.8650 C   0  0  0  0  0  0  0  0  0  0  0  0
   29.2960   -1.5430    8.2710 C   0  0  0  0  0  0  0  0  0  0  0  0
   28.1830   -1.6500    7.4170 C   0  0  0  0  0  0  0  0  0  0  0  0
   28.1360   -0.9700    6.2100 C   0  0  0  0  0  0  0  0  0  0  0  0
   29.3400   -2.1980    9.5050 O   0  0  0  0  0  0  0  0  0  0  0  0
   27.5510    2.1840    4.0190 N   0  0  0  0  0  0  0  0  0  0  0  0
   26.9620    3.4750    3.9960 C   0  0  0  0  0  0  0  0  0  0  0  0
   27.7050    4.6320    3.7750 C   0  0  0  0  0  0  0  0  0  0  0  0
   27.0230    5.8370    3.7890 C   0  0  0  0  0  0  0  0  0  0  0  0
   25.6460    5.8690    3.9470 C   0  0  0  0  0  0  0  0  0  0  0  0
   24.9240    4.7420    4.2340 C   0  0  0  0  0  0  0  0  0  0  0  0
   25.5840    3.5370    4.1770 C   0  0  0  0  0  0  0  0  0  0  0  0
   23.2260    4.7600    4.4840 Cl  0  0  0  0  0  0  0  0  0  0  0  0
   24.8490    7.4010    3.9600 Cl  0  0  0  0  0  0  0  0  0  0  0  0
  1  8  1  0  0  0  0
  3  1  1  0  0  0  0
  5  4  2  0  0  0  0
  6  7  2  0  0  0  0
  7  1  1  0  0  0  0
  7 16  1  0  0  0  0
  8  2  1  6  0  0  0
  8  5  1  0  0  0  0
  8  9  1  0  0  0  0
  9 14  2  0  0  0  0
  9 10  1  0  0  0  0
 10 11  2  0  0  0  0
 11 12  1  0  0  0  0
 12 15  1  0  0  0  0
 13 12  2  0  0  0  0
 14 13  1  0  0  0  0
 16  5  1  0  0  0  0
 17 16  1  0  0  0  0
 17 22  1  0  0  0  0
 18 19  1  0  0  0  0
 18 17  2  0  0  0  0
 19 20  2  0  0  0  0
 20 24  1  0  0  0  0
 20 21  1  0  0  0  0
 21 23  1  0  0  0  0
 22 21  2  0  0  0  0
M  END
