ligand_pdbs\PRO.pdb
 OpenBabel06092512053D

  8  8  0  0  1  0  0  0  0  0999 V2000
  -15.5830  -22.3420  -11.0920 N   0  0  0  0  0  0  0  0  0  0  0  0
  -16.7470  -22.0850  -10.2340 C   0  0  2  0  0  0  0  0  0  0  0  0
  -17.2130  -23.3340   -9.4910 C   0  0  0  0  0  0  0  0  0  0  0  0
  -16.4240  -24.2430   -9.2260 O   0  0  0  0  0  0  0  0  0  0  0  0
  -17.8090  -21.6120  -11.2290 C   0  0  0  0  0  0  0  0  0  0  0  0
  -17.0190  -20.9480  -12.2970 C   0  0  0  0  0  0  0  0  0  0  0  0
  -15.7310  -21.7230  -12.4210 C   0  0  0  0  0  0  0  0  0  0  0  0
  -18.3880  -23.4600   -9.1400 O   0  0  0  0  0  0  0  0  0  0  0  0
  1  2  1  0  0  0  0
  2  3  1  6  0  0  0
  3  4  2  0  0  0  0
  3  8  1  0  0  0  0
  5  2  1  0  0  0  0
  6  5  1  0  0  0  0
  7  6  1  0  0  0  0
  7  1  1  0  0  0  0
M  END
