ligand_pdbs\PTR.pdb
 OpenBabel06092512053D

 16 16  0  0  1  0  0  0  0  0999 V2000
  -53.7880   24.9230  -30.8330 N   0  0  0  0  0  0  0  0  0  0  0  0
  -52.9040   23.7450  -31.0430 C   0  0  2  0  0  0  0  0  0  0  0  0
  -52.6120   23.6130  -32.5410 C   0  0  0  0  0  0  0  0  0  0  0  0
  -53.3540   24.2150  -33.3430 O   0  0  0  0  0  0  0  0  0  0  0  0
  -53.5750   22.4790  -30.5030 C   0  0  0  0  0  0  0  0  0  0  0  0
  -54.6340   22.7240  -29.4580 C   0  0  0  0  0  0  0  0  0  0  0  0
  -55.9750   22.7930  -29.8030 C   0  0  0  0  0  0  0  0  0  0  0  0
  -54.2940   22.9050  -28.1270 C   0  0  0  0  0  0  0  0  0  0  0  0
  -56.9580   23.0240  -28.8550 C   0  0  0  0  0  0  0  0  0  0  0  0
  -55.2540   23.1390  -27.1570 C   0  0  0  0  0  0  0  0  0  0  0  0
  -56.5840   23.1990  -27.5350 C   0  0  0  0  0  0  0  0  0  0  0  0
  -57.5910   23.4300  -26.5900 O   0  0  0  0  0  0  0  0  0  0  0  0
  -57.3870   24.0850  -25.1500 P   0  0  0  0  0  0  0  0  0  0  0  0
  -56.6760   25.4070  -25.3130 O   0  0  0  0  0  0  0  0  0  0  0  0
  -58.7530   24.2950  -24.5470 O   0  0  0  0  0  0  0  0  0  0  0  0
  -56.5740   23.1510  -24.2850 O   0  0  0  0  0  0  0  0  0  0  0  0
  2  1  1  6  0  0  0
  2  5  1  0  0  0  0
  3  2  1  0  0  0  0
  4  3  2  0  0  0  0
  5  6  1  0  0  0  0
  6  8  1  0  0  0  0
  7  6  2  0  0  0  0
  7  9  1  0  0  0  0
  8 10  2  0  0  0  0
  9 11  2  0  0  0  0
 11 10  1  0  0  0  0
 11 12  1  0  0  0  0
 12 13  1  0  0  0  0
 13 15  1  0  0  0  0
 13 16  1  0  0  0  0
 14 13  2  0  0  0  0
M  END
