ligand_pdbs\PWL.pdb
 OpenBabel06092512053D

 11 12  0  0  0  0  0  0  0  0999 V2000
  -29.0620  -41.8160   -9.8320 C   0  0  0  0  0  0  0  0  0  0  0  0
  -28.2910  -42.8800  -10.2650 C   0  0  0  0  0  0  0  0  0  0  0  0
  -28.9230  -44.0830  -10.5580 C   0  0  0  0  0  0  0  0  0  0  0  0
  -29.5140  -46.1590  -11.1070 C   0  0  0  0  0  0  0  0  0  0  0  0
  -30.6660  -45.5370  -10.7850 C   0  0  0  0  0  0  0  0  0  0  0  0
  -30.3210  -44.1690  -10.4100 C   0  0  0  0  0  0  0  0  0  0  0  0
  -28.1470  -40.2360   -9.4470 Br  0  0  0  0  0  0  0  0  0  0  0  0
  -28.4650  -45.2980  -10.9810 N   0  0  0  0  0  0  0  0  0  0  0  0
  -31.0140  -43.0970  -10.0000 N   0  0  0  0  0  4  0  0  0  0  0  0
  -30.4540  -41.9330   -9.6950 C   0  0  0  0  0  0  0  0  0  0  0  0
  -31.2520  -40.8630   -9.2630 N   0  0  0  0  0  0  0  0  0  0  0  0
  1 10  1  0  0  0  0
  1  7  1  0  0  0  0
  2  1  2  0  0  0  0
  3  6  1  0  0  0  0
  3  2  1  0  0  0  0
  4  8  1  0  0  0  0
  4  5  2  0  0  0  0
  5  6  1  0  0  0  0
  6  9  2  0  0  0  0
  8  3  2  0  0  0  0
  9 10  2  0  0  0  0
 10 11  1  0  0  0  0
M  END
