ligand_pdbs\QKY.pdb
 OpenBabel06092512053D

 22 24  0  0  1  0  0  0  0  0999 V2000
   12.9850  -47.2860  -16.4480 N   0  0  0  0  0  0  0  0  0  0  0  0
   11.7920  -48.0270  -19.9410 C   0  0  0  0  0  0  0  0  0  0  0  0
   10.6470  -48.4690  -20.5940 C   0  0  0  0  0  0  0  0  0  0  0  0
    9.4550  -48.5920  -19.9050 C   0  0  0  0  0  0  0  0  0  0  0  0
    9.4060  -48.2800  -18.5580 C   0  0  0  0  0  0  0  0  0  0  0  0
   10.5490  -47.8410  -17.8980 C   0  0  0  0  0  0  0  0  0  0  0  0
   13.4510  -44.5930  -17.0950 C   0  0  0  0  0  0  0  0  0  0  0  0
   11.4170  -41.7950  -15.2820 C   0  0  0  0  0  0  0  0  0  0  0  0
   11.4630  -41.2940  -17.7560 C   0  0  0  0  0  0  0  0  0  0  0  0
   16.2360  -48.8260  -17.1240 C   0  0  0  0  0  0  0  0  0  0  0  0
   14.7520  -47.8320  -19.4210 O   0  0  0  0  0  0  0  0  0  0  0  0
   14.3110  -47.7280  -18.2930 C   0  0  0  0  0  0  0  0  0  0  0  0
   12.5220  -42.3850  -17.9460 C   0  0  0  0  0  0  0  0  0  0  0  0
   14.4950  -48.3090  -14.8340 N   0  0  0  0  0  0  0  0  0  0  0  0
   14.9250  -48.1610  -17.1450 N   0  0  0  0  0  0  0  0  0  0  0  0
   12.9760  -47.0450  -17.8890 C   0  0  1  0  0  0  0  0  0  0  0  0
   14.1120  -47.9250  -16.0380 C   0  0  0  0  0  0  0  0  0  0  0  0
   11.7580  -47.6940  -18.5830 C   0  0  0  0  0  0  0  0  0  0  0  0
   13.0960  -45.5460  -18.2410 C   0  0  0  0  0  0  0  0  0  0  0  0
   11.5220  -40.6970  -16.3450 C   0  0  0  0  0  0  0  0  0  0  0  0
   12.4770  -42.8840  -15.4960 C   0  0  0  0  0  0  0  0  0  0  0  0
   12.4040  -43.4980  -16.8960 C   0  0  0  0  0  0  0  0  0  0  0  0
  1 17  2  0  0  0  0
  2 18  1  0  0  0  0
  3  2  2  0  0  0  0
  3  4  1  0  0  0  0
  4  5  2  0  0  0  0
  5  6  1  0  0  0  0
  7 22  1  0  0  0  0
  9 20  1  0  0  0  0
 11 12  2  0  0  0  0
 12 16  1  0  0  0  0
 12 15  1  0  0  0  0
 13  9  1  0  0  0  0
 13 22  1  0  0  0  0
 15 10  1  0  0  0  0
 15 17  1  0  0  0  0
 16 19  1  6  0  0  0
 16  1  1  0  0  0  0
 17 14  1  0  0  0  0
 18  6  2  0  0  0  0
 18 16  1  0  0  0  0
 19  7  1  0  0  0  0
 20  8  1  0  0  0  0
 21  8  1  0  0  0  0
 22 21  1  0  0  0  0
M  END
