ligand_pdbs\QN4.pdb
 OpenBabel06092512053D

 35 36  0  0  0  0  0  0  0  0999 V2000
  -49.4940  -57.7710  -25.8000 C   0  0  0  0  0  0  0  0  0  0  0  0
  -49.2770  -59.0420  -25.2460 C   0  0  0  0  0  0  0  0  0  0  0  0
  -50.8790  -61.2610  -27.5620 C   0  0  0  0  0  0  0  0  0  0  0  0
  -49.9200  -61.6300  -28.6820 C   0  0  0  0  0  0  0  0  0  0  0  0
  -49.3670  -63.4930  -30.2300 C   0  0  0  0  0  0  0  0  0  0  0  0
  -48.0040  -63.3120  -30.4140 C   0  0  0  0  0  0  0  0  0  0  0  0
  -47.3620  -63.9210  -31.4740 C   0  0  0  0  0  0  0  0  0  0  0  0
  -48.0320  -64.7510  -32.3740 C   0  0  0  0  0  0  0  0  0  0  0  0
  -49.4070  -64.9380  -32.1550 C   0  0  0  0  0  0  0  0  0  0  0  0
  -50.0780  -64.2970  -31.1170 C   0  0  0  0  0  0  0  0  0  0  0  0
  -50.2410  -57.6370  -26.9200 C   0  0  0  0  0  0  0  0  0  0  0  0
  -50.0420  -62.8980  -29.1360 N   0  0  0  0  0  0  0  0  0  0  0  0
  -47.2630  -65.3600  -33.5170 C   0  0  0  0  0  0  0  0  0  0  0  0
  -49.1240  -60.8120  -29.1330 O   0  0  0  0  0  0  0  0  0  0  0  0
  -50.8090  -58.8070  -27.5600 C   0  0  0  0  0  0  0  0  0  0  0  0
  -50.5000  -60.0050  -26.9340 N   0  0  0  0  0  0  0  0  0  0  0  0
  -49.7700  -60.1490  -25.7980 N   0  0  0  0  0  0  0  0  0  0  0  0
  -50.3490  -67.5100  -32.4040 N   0  0  0  0  0  0  0  0  0  0  0  0
  -51.5100  -58.7920  -28.5680 O   0  0  0  0  0  0  0  0  0  0  0  0
  -49.7120  -66.2500  -34.3970 O   0  0  0  0  0  0  0  0  0  0  0  0
  -51.7110  -65.6080  -33.1340 O   0  0  0  0  0  0  0  0  0  0  0  0
  -50.3590  -66.0810  -33.1320 S   0  0  0  0  0  0  0  0  0  0  0  0
  -50.5560  -56.1000  -27.6430 Cl  0  0  0  0  0  0  0  0  0  0  0  0
  -48.7080  -59.2050  -24.3330 H   0  0  0  0  0  0  0  0  0  0  0  0
  -50.9480  -62.0430  -26.8070 H   0  0  0  0  0  0  0  0  0  0  0  0
  -51.8920  -61.2060  -27.9580 H   0  0  0  0  0  0  0  0  0  0  0  0
  -47.3940  -62.7050  -29.7470 H   0  0  0  0  0  0  0  0  0  0  0  0
  -46.3000  -63.7180  -31.6050 H   0  0  0  0  0  0  0  0  0  0  0  0
  -51.1510  -64.4260  -30.9900 H   0  0  0  0  0  0  0  0  0  0  0  0
  -50.6850  -63.5250  -28.6640 H   0  0  0  0  0  0  0  0  0  0  0  0
  -47.3060  -66.4470  -33.5470 H   0  0  0  0  0  0  0  0  0  0  0  0
  -46.2030  -65.1270  -33.4600 H   0  0  0  0  0  0  0  0  0  0  0  0
  -47.5890  -64.9630  -34.4780 H   0  0  0  0  0  0  0  0  0  0  0  0
  -50.6600  -68.3770  -32.8310 H   0  0  0  0  0  0  0  0  0  0  0  0
  -50.0310  -67.6990  -31.4590 H   0  0  0  0  0  0  0  0  0  0  0  0
  1  2  1  0  0  0  0
  2 24  1  0  0  0  0
  3 16  1  0  0  0  0
  3 25  1  0  0  0  0
  4  3  1  0  0  0  0
  5 12  1  0  0  0  0
  6  5  1  0  0  0  0
  6 27  1  0  0  0  0
  7  6  2  0  0  0  0
  8  9  2  0  0  0  0
  8  7  1  0  0  0  0
  9 10  1  0  0  0  0
 10 29  1  0  0  0  0
 10  5  2  0  0  0  0
 11  1  2  0  0  0  0
 12  4  1  0  0  0  0
 12 30  1  0  0  0  0
 13 32  1  0  0  0  0
 13  8  1  0  0  0  0
 14  4  2  0  0  0  0
 15 16  1  0  0  0  0
 15 11  1  0  0  0  0
 16 17  1  0  0  0  0
 17  2  2  0  0  0  0
 18 35  1  0  0  0  0
 19 15  2  0  0  0  0
 20 22  2  0  0  0  0
 21 22  2  0  0  0  0
 22 18  1  0  0  0  0
 22  9  1  0  0  0  0
 23 11  1  0  0  0  0
 26  3  1  0  0  0  0
 28  7  1  0  0  0  0
 31 13  1  0  0  0  0
 33 13  1  0  0  0  0
 34 18  1  0  0  0  0
M  END
