ligand_pdbs\RJA.pdb
 OpenBabel06092512053D

 34 34  0  0  1  0  0  0  0  0999 V2000
  -34.3400   76.0570   28.7380 C   0  0  0  0  0  0  0  0  0  0  0  0
  -35.5590   76.0970   28.9980 O   0  0  0  0  0  0  0  0  0  0  0  0
  -33.3300   76.1210   29.8700 C   0  0  0  0  0  0  0  0  0  0  0  0
  -30.4300   72.8610   29.2970 O   0  0  0  0  0  0  0  0  0  0  0  0
  -32.1310   75.2040   29.6480 C   0  0  0  0  0  0  0  0  0  0  0  0
  -43.6890   72.3670   28.5160 O   0  0  0  0  0  0  0  0  0  0  0  0
  -32.6400   73.8270   29.2190 C   0  0  0  0  0  0  0  0  0  0  0  0
  -43.9770   72.5730   33.7280 O   0  0  0  0  0  0  0  0  0  0  0  0
  -31.5750   73.0440   28.4650 C   0  0  2  0  0  0  0  0  0  0  0  0
  -43.9350   71.0200   30.5500 O   0  0  0  0  0  0  0  0  0  0  0  0
  -32.0540   71.6930   27.9830 C   0  0  0  0  0  0  0  0  0  0  0  0
  -33.3270   71.3230   27.9330 C   0  0  0  0  0  0  0  0  0  0  0  0
  -33.6710   69.9790   27.4300 C   0  0  0  0  0  0  0  0  0  0  0  0
  -34.9300   69.5500   27.4380 C   0  0  0  0  0  0  0  0  0  0  0  0
  -33.9310   75.9780   27.5670 O   0  0  0  0  0  0  0  0  0  0  0  0
  -36.0420   70.4070   27.9680 C   0  0  1  0  0  0  0  0  0  0  0  0
  -37.0360   70.7180   26.8590 C   0  0  0  0  0  0  0  0  0  0  0  0
  -38.0280   71.7040   27.4090 C   0  0  0  0  0  0  0  0  0  0  0  0
  -39.2110   71.2640   27.8260 C   0  0  0  0  0  0  0  0  0  0  0  0
  -40.2050   72.1510   28.4040 C   0  0  0  0  0  0  0  0  0  0  0  0
  -41.3940   71.6360   28.6580 C   0  0  0  0  0  0  0  0  0  0  0  0
  -42.4900   72.4430   29.2930 C   0  0  2  0  0  0  0  0  0  0  0  0
  -42.7120   71.7230   30.6110 C   0  0  1  0  0  0  0  0  0  0  0  0
  -42.6700   72.6860   31.7700 C   0  0  0  0  0  0  0  0  0  0  0  0
  -42.8860   71.9450   33.0730 C   0  0  2  0  0  0  0  0  0  0  0  0
  -43.2810   70.5030   32.8430 C   0  0  1  0  0  0  0  0  0  0  0  0
  -44.3520   70.4200   31.7670 C   0  0  2  0  0  0  0  0  0  0  0  0
  -44.7290   68.9850   31.5130 C   0  0  0  0  0  0  0  0  0  0  0  0
  -46.0060   68.6880   31.3680 C   0  0  0  0  0  0  0  0  0  0  0  0
  -46.4630   67.2780   31.1160 C   0  0  0  0  0  0  0  0  0  0  0  0
  -32.6150   69.0690   26.8830 C   0  0  0  0  0  0  0  0  0  0  0  0
  -36.7150   69.6710   29.1120 C   0  0  0  0  0  0  0  0  0  0  0  0
  -37.6750   73.1530   27.4900 C   0  0  0  0  0  0  0  0  0  0  0  0
  -42.0810   69.6270   32.5360 C   0  0  0  0  0  0  0  0  0  0  0  0
  1  2  1  0  0  0  0
  1  3  1  0  0  0  0
  5  3  1  0  0  0  0
  7  5  1  0  0  0  0
  9  7  1  0  0  0  0
  9  4  1  1  0  0  0
 10 23  1  0  0  0  0
 10 27  1  0  0  0  0
 11  9  1  0  0  0  0
 12 11  2  0  0  0  0
 13 14  2  0  0  0  0
 13 12  1  0  0  0  0
 14 16  1  0  0  0  0
 15  1  2  0  0  0  0
 16 32  1  1  0  0  0
 17 18  1  0  0  0  0
 17 16  1  0  0  0  0
 18 33  1  0  0  0  0
 18 19  2  0  0  0  0
 19 20  1  0  0  0  0
 20 21  2  0  0  0  0
 21 22  1  0  0  0  0
 22  6  1  6  0  0  0
 23 22  1  6  0  0  0
 23 24  1  0  0  0  0
 24 25  1  0  0  0  0
 25  8  1  6  0  0  0
 26 34  1  6  0  0  0
 26 25  1  0  0  0  0
 27 28  1  6  0  0  0
 27 26  1  0  0  0  0
 29 28  2  0  0  0  0
 30 29  1  0  0  0  0
 31 13  1  0  0  0  0
M  END
