ligand_pdbs\SAM.pdb
 OpenBabel06092512053D

 27 29  0  0  1  0  0  0  0  0999 V2000
    1.3930   -1.5670   -8.9250 N   0  0  0  0  0  0  0  0  0  0  0  0
    1.5310   -1.4820   -7.4420 C   0  0  2  0  0  0  0  0  0  0  0  0
    2.1830   -2.7520   -6.8830 C   0  0  0  0  0  0  0  0  0  0  0  0
    2.7240   -3.6170   -7.6080 O   0  0  0  0  0  0  0  0  0  0  0  0
    2.1900   -2.9310   -5.6680 O   0  0  0  0  0  0  0  0  0  0  0  0
    0.1830   -1.1370   -6.7890 C   0  0  0  0  0  0  0  0  0  0  0  0
   -0.1390    0.3710   -6.9050 C   0  0  0  0  0  0  0  0  0  0  0  0
    0.9700    1.3680   -5.8470 S   0  0  2  0  0  0  0  0  0  0  0  0
   -0.1740    2.4090   -4.9090 C   0  0  0  0  0  0  0  0  0  0  0  0
    1.5940    2.6330   -6.9820 C   0  0  0  0  0  0  0  0  0  0  0  0
    2.7300    2.1810   -7.8760 C   0  0  1  0  0  0  0  0  0  0  0  0
    2.2750    1.3850   -8.9670 O   0  0  0  0  0  0  0  0  0  0  0  0
    3.4130    3.3840   -8.4830 C   0  0  1  0  0  0  0  0  0  0  0  0
    4.4250    3.8750   -7.6270 O   0  0  0  0  0  0  0  0  0  0  0  0
    3.9250    2.8520   -9.8050 C   0  0  1  0  0  0  0  0  0  0  0  0
    5.1660    2.1800   -9.6170 O   0  0  0  0  0  0  0  0  0  0  0  0
    2.8840    1.8080  -10.1750 C   0  0  2  0  0  0  0  0  0  0  0  0
    1.8340    2.3470  -11.0740 N   0  0  0  0  0  0  0  0  0  0  0  0
    0.5010    2.4850  -10.7580 C   0  0  0  0  0  0  0  0  0  0  0  0
   -0.1610    2.9690  -11.8360 N   0  0  0  0  0  0  0  0  0  0  0  0
    0.7460    3.1160  -12.8420 C   0  0  0  0  0  0  0  0  0  0  0  0
    0.6180    3.5620  -14.1560 C   0  0  0  0  0  0  0  0  0  0  0  0
   -0.5440    3.9580  -14.6550 N   0  0  0  0  0  0  0  0  0  0  0  0
    1.7330    3.6070  -14.9460 N   0  0  0  0  0  0  0  0  0  0  0  0
    2.9630    3.2060  -14.4690 C   0  0  0  0  0  0  0  0  0  0  0  0
    3.1050    2.7550  -13.1710 N   0  0  0  0  0  0  0  0  0  0  0  0
    1.9920    2.7070  -12.3780 C   0  0  0  0  0  0  0  0  0  0  0  0
  2  1  1  6  0  0  0
  2  3  1  0  0  0  0
  2  6  1  0  0  0  0
  3  5  1  0  0  0  0
  4  3  2  0  0  0  0
  7  6  1  0  0  0  0
  7  8  1  0  0  0  0
  8  9  1  1  0  0  0
 10  8  1  0  0  0  0
 11 10  1  1  0  0  0
 12 11  1  0  0  0  0
 13 11  1  0  0  0  0
 13 14  1  1  0  0  0
 15 16  1  1  0  0  0
 15 13  1  0  0  0  0
 17 18  1  6  0  0  0
 17 15  1  0  0  0  0
 17 12  1  0  0  0  0
 18 19  1  0  0  0  0
 20 19  1  0  0  0  0
 21 27  1  0  0  0  0
 21 20  2  0  0  0  0
 22 21  1  0  0  0  0
 23 22  1  0  0  0  0
 24 25  1  0  0  0  0
 24 22  2  0  0  0  0
 25 26  1  0  0  0  0
 26 27  2  0  0  0  0
 27 18  1  0  0  0  0
M  END
