ligand_pdbs\SFG.pdb
 OpenBabel06092512053D

 27 29  0  0  1  0  0  0  0  0999 V2000
   23.8470  -36.3380   -6.6830 N   0  0  0  0  0  0  0  0  0  0  0  0
   24.3370  -37.6230   -6.2070 C   0  0  2  0  0  0  0  0  0  0  0  0
   25.2350  -38.2230   -7.2340 C   0  0  0  0  0  0  0  0  0  0  0  0
   25.0320  -37.9480   -8.4430 O   0  0  0  0  0  0  0  0  0  0  0  0
   26.1460  -38.9710   -6.8220 O   0  0  0  0  0  0  0  0  0  0  0  0
   23.1960  -38.6010   -5.9470 C   0  0  0  0  0  0  0  0  0  0  0  0
   22.0900  -38.5330   -6.9970 C   0  0  0  0  0  0  0  0  0  0  0  0
   21.0120  -39.5490   -6.6850 C   0  0  2  0  0  0  0  0  0  0  0  0
   20.8200  -40.3750   -7.8710 N   0  0  0  0  0  0  0  0  0  0  0  0
   19.7180  -38.8240   -6.3160 C   0  0  0  0  0  0  0  0  0  0  0  0
   19.7340  -38.1640   -4.9290 C   0  0  1  0  0  0  0  0  0  0  0  0
   18.5870  -37.3150   -4.8300 O   0  0  0  0  0  0  0  0  0  0  0  0
   19.6070  -39.1740   -3.7900 C   0  0  1  0  0  0  0  0  0  0  0  0
   20.6450  -38.9770   -2.8150 O   0  0  0  0  0  0  0  0  0  0  0  0
   18.2230  -38.9300   -3.2150 C   0  0  1  0  0  0  0  0  0  0  0  0
   18.2020  -39.1560   -1.8070 O   0  0  0  0  0  0  0  0  0  0  0  0
   17.9420  -37.4830   -3.5640 C   0  0  2  0  0  0  0  0  0  0  0  0
   16.5200  -37.1420   -3.7900 N   0  0  0  0  0  0  0  0  0  0  0  0
   15.6700  -37.8670   -4.5310 C   0  0  0  0  0  0  0  0  0  0  0  0
   14.4390  -37.2840   -4.5790 N   0  0  0  0  0  0  0  0  0  0  0  0
   14.5080  -36.1480   -3.8640 C   0  0  0  0  0  0  0  0  0  0  0  0
   13.5560  -35.0770   -3.5330 C   0  0  0  0  0  0  0  0  0  0  0  0
   12.2740  -35.1420   -3.9980 N   0  0  0  0  0  0  0  0  0  0  0  0
   14.0000  -34.0560   -2.7550 N   0  0  0  0  0  0  0  0  0  0  0  0
   15.2740  -34.0240   -2.3030 C   0  0  0  0  0  0  0  0  0  0  0  0
   16.1890  -34.9760   -2.5900 N   0  0  0  0  0  0  0  0  0  0  0  0
   15.8770  -36.0480   -3.3570 C   0  0  0  0  0  0  0  0  0  0  0  0
  2  1  1  6  0  0  0
  2  6  1  0  0  0  0
  3  5  1  0  0  0  0
  3  2  1  0  0  0  0
  4  3  2  0  0  0  0
  7  8  1  0  0  0  0
  7  6  1  0  0  0  0
  8  9  1  6  0  0  0
  8 10  1  0  0  0  0
 11 10  1  6  0  0  0
 11 12  1  0  0  0  0
 11 13  1  0  0  0  0
 12 17  1  0  0  0  0
 13 15  1  0  0  0  0
 13 14  1  1  0  0  0
 15 16  1  1  0  0  0
 17 18  1  6  0  0  0
 17 15  1  0  0  0  0
 18 27  1  0  0  0  0
 19 18  1  0  0  0  0
 20 19  1  0  0  0  0
 20 21  2  0  0  0  0
 21 22  1  0  0  0  0
 21 27  1  0  0  0  0
 22 24  2  0  0  0  0
 23 22  1  0  0  0  0
 24 25  1  0  0  0  0
 26 25  1  0  0  0  0
 27 26  2  0  0  0  0
M  END
