ligand_pdbs\SO4.pdb
 OpenBabel06092512053D

  5  4  0  0  0  0  0  0  0  0999 V2000
   13.4390  -19.3560   10.7230 S   0  0  0  0  0  0  0  0  0  0  0  0
   12.5790  -19.8690   11.7980 O   0  0  0  0  0  0  0  0  0  0  0  0
   12.8230  -19.6520    9.4190 O   0  0  0  0  0  0  0  0  0  0  0  0
   13.5840  -17.9020   10.8760 O   0  0  0  0  0  0  0  0  0  0  0  0
   14.7650  -19.9860   10.7970 O   0  0  0  0  0  0  0  0  0  0  0  0
  1  5  2  0  0  0  0
  1  4  1  0  0  0  0
  1  2  1  0  0  0  0
  3  1  2  0  0  0  0
M  END
