ligand_pdbs/SO4_A_932 .pdb
 OpenBabel05122511023D

  5  4  0  0  0  0  0  0  0  0999 V2000
   -5.1100    6.4920   24.7590 S   0  0  0  0  0  0  0  0  0  0  0  0
   -3.7390    6.9160   25.0970 O   0  0  0  0  0  0  0  0  0  0  0  0
   -5.3320    6.6880   23.3140 O   0  0  0  0  0  0  0  0  0  0  0  0
   -5.2900    5.0680   25.0890 O   0  0  0  0  0  0  0  0  0  0  0  0
   -6.0800    7.2990   25.5230 O   0  0  0  0  0  0  0  0  0  0  0  0
  1  4  2  0  0  0  0
  1  2  1  0  0  0  0
  1  5  1  0  0  0  0
  3  1  2  0  0  0  0
M  END
