ligand_pdbs\STR.pdb
 OpenBabel06092512053D

 53 56  0  0  1  0  0  0  0  0999 V2000
   -7.0130  -33.2380   18.7010 C   0  0  0  0  0  0  0  0  0  0  0  0
   -5.5270  -33.2380   18.3370 C   0  0  0  0  0  0  0  0  0  0  0  0
   -5.3580  -33.4120   16.9340 C   0  0  0  0  0  0  0  0  0  0  0  0
   -4.4860  -34.0910   16.4340 O   0  0  0  0  0  0  0  0  0  0  0  0
   -6.3430  -32.8480   15.9940 C   0  0  0  0  0  0  0  0  0  0  0  0
   -7.5740  -32.1430   16.5530 C   0  0  0  0  0  0  0  0  0  0  0  0
   -8.4000  -31.4830   15.5970 C   0  0  0  0  0  0  0  0  0  0  0  0
  -10.0000  -31.6840   16.0270 C   0  0  0  0  0  0  0  0  0  0  0  0
  -10.2960  -31.5270   17.2560 C   0  0  2  0  0  0  0  0  0  0  0  0
   -9.4180  -32.3830   18.1140 C   0  0  1  0  0  0  0  0  0  0  0  0
   -7.8380  -32.1260   17.8950 C   0  0  1  0  0  0  0  0  0  0  0  0
   -9.8410  -32.3470   19.6110 C   0  0  0  0  0  0  0  0  0  0  0  0
  -11.1370  -32.5240   19.8250 C   0  0  0  0  0  0  0  0  0  0  0  0
  -11.9790  -31.7210   19.0360 C   0  0  1  0  0  0  0  0  0  0  0  0
  -11.3720  -31.7340   17.5130 C   0  0  1  0  0  0  0  0  0  0  0  0
  -12.6560  -30.9780   16.7030 C   0  0  0  0  0  0  0  0  0  0  0  0
  -14.1130  -31.2060   17.6250 C   0  0  0  0  0  0  0  0  0  0  0  0
  -13.6650  -32.0640   18.8980 C   0  0  2  0  0  0  0  0  0  0  0  0
  -11.9530  -30.2410   19.5380 C   0  0  0  0  0  0  0  0  0  0  0  0
   -7.4070  -30.7570   18.4390 C   0  0  0  0  0  0  0  0  0  0  0  0
  -14.4010  -31.8170   20.0420 C   0  0  0  0  0  0  0  0  0  0  0  0
  -15.2210  -30.9270   20.1430 O   0  0  0  0  0  0  0  0  0  0  0  0
  -14.2970  -32.7020   21.2660 C   0  0  0  0  0  0  0  0  0  0  0  0
   -7.1020  -33.0650   19.6520 H   0  0  0  0  0  0  0  0  0  0  0  0
   -7.3840  -34.1110   18.4990 H   0  0  0  0  0  0  0  0  0  0  0  0
   -5.0850  -33.9640   18.8040 H   0  0  0  0  0  0  0  0  0  0  0  0
   -5.1340  -32.3920   18.6030 H   0  0  0  0  0  0  0  0  0  0  0  0
   -6.1320  -32.7710   15.0910 H   0  0  0  0  0  0  0  0  0  0  0  0
   -8.2500  -31.8680   14.7190 H   0  0  0  0  0  0  0  0  0  0  0  0
   -8.1850  -30.5370   15.5820 H   0  0  0  0  0  0  0  0  0  0  0  0
  -10.5260  -31.0520   15.5120 H   0  0  0  0  0  0  0  0  0  0  0  0
  -10.2650  -32.5810   15.7700 H   0  0  0  0  0  0  0  0  0  0  0  0
  -10.1140  -30.6020   17.4840 H   0  0  0  0  0  0  0  0  0  0  0  0
   -9.5770  -33.2940   17.8200 H   0  0  0  0  0  0  0  0  0  0  0  0
   -9.3560  -33.0430   20.0810 H   0  0  0  0  0  0  0  0  0  0  0  0
   -9.5870  -31.4860   19.9790 H   0  0  0  0  0  0  0  0  0  0  0  0
  -11.3510  -33.4540   19.6500 H   0  0  0  0  0  0  0  0  0  0  0  0
  -11.3210  -32.3340   20.7590 H   0  0  0  0  0  0  0  0  0  0  0  0
  -11.4650  -32.6620   17.2460 H   0  0  0  0  0  0  0  0  0  0  0  0
  -12.4720  -30.0290   16.6180 H   0  0  0  0  0  0  0  0  0  0  0  0
  -12.7640  -31.3750   15.8240 H   0  0  0  0  0  0  0  0  0  0  0  0
  -14.4700  -30.3490   17.9070 H   0  0  0  0  0  0  0  0  0  0  0  0
  -14.7680  -31.6960   17.1030 H   0  0  0  0  0  0  0  0  0  0  0  0
  -13.7620  -33.0030   18.6740 H   0  0  0  0  0  0  0  0  0  0  0  0
  -12.0570  -30.2250   20.5020 H   0  0  0  0  0  0  0  0  0  0  0  0
  -12.6780  -29.7470   19.1260 H   0  0  0  0  0  0  0  0  0  0  0  0
  -11.1060  -29.8330   19.2970 H   0  0  0  0  0  0  0  0  0  0  0  0
   -6.4450  -30.6640   18.3540 H   0  0  0  0  0  0  0  0  0  0  0  0
   -7.6570  -30.6880   19.3740 H   0  0  0  0  0  0  0  0  0  0  0  0
   -7.8460  -30.0550   17.9340 H   0  0  0  0  0  0  0  0  0  0  0  0
  -14.7950  -32.3020   21.9970 H   0  0  0  0  0  0  0  0  0  0  0  0
  -13.3660  -32.7940   21.5210 H   0  0  0  0  0  0  0  0  0  0  0  0
  -14.6650  -33.5770   21.0650 H   0  0  0  0  0  0  0  0  0  0  0  0
  1 24  1  0  0  0  0
  2 27  1  0  0  0  0
  2  1  1  0  0  0  0
  2 26  1  0  0  0  0
  3  2  1  0  0  0  0
  4  3  2  0  0  0  0
  5  6  2  0  0  0  0
  5  3  1  0  0  0  0
  6 11  1  0  0  0  0
  7  8  1  0  0  0  0
  7  6  1  0  0  0  0
  8  9  1  0  0  0  0
  9 33  1  1  0  0  0
  9 15  1  0  0  0  0
  9 10  1  0  0  0  0
 10 34  1  6  0  0  0
 10 12  1  0  0  0  0
 11 10  1  0  0  0  0
 11 20  1  1  0  0  0
 11  1  1  0  0  0  0
 12 13  1  0  0  0  0
 12 36  1  0  0  0  0
 12 35  1  0  0  0  0
 13 38  1  0  0  0  0
 14 19  1  1  0  0  0
 14 13  1  0  0  0  0
 15 39  1  6  0  0  0
 15 14  1  0  0  0  0
 16 15  1  0  0  0  0
 16 17  1  0  0  0  0
 17 42  1  0  0  0  0
 17 18  1  0  0  0  0
 18 44  1  6  0  0  0
 18 14  1  0  0  0  0
 18 21  1  0  0  0  0
 19 45  1  0  0  0  0
 20 49  1  0  0  0  0
 21 22  2  0  0  0  0
 21 23  1  0  0  0  0
 23 52  1  0  0  0  0
 23 51  1  0  0  0  0
 25  1  1  0  0  0  0
 28  5  1  0  0  0  0
 29  7  1  0  0  0  0
 30  7  1  0  0  0  0
 31  8  1  0  0  0  0
 32  8  1  0  0  0  0
 37 13  1  0  0  0  0
 40 16  1  0  0  0  0
 41 16  1  0  0  0  0
 43 17  1  0  0  0  0
 46 19  1  0  0  0  0
 47 19  1  0  0  0  0
 48 20  1  0  0  0  0
 50 20  1  0  0  0  0
 53 23  1  0  0  0  0
M  END
