ligand_pdbs\V6A.pdb
 OpenBabel06092512053D

 31 33  0  0  0  0  0  0  0  0999 V2000
   22.2600   20.6790   28.9640 C   0  0  0  0  0  0  0  0  0  0  0  0
   21.5140   22.8370   29.7110 C   0  0  0  0  0  0  0  0  0  0  0  0
   22.0620   23.8300   28.6960 C   0  0  0  0  0  0  0  0  0  0  0  0
   21.7010   23.4800   27.2540 C   0  0  0  0  0  0  0  0  0  0  0  0
   24.6290   25.0230   26.4750 C   0  0  0  0  0  0  0  0  0  0  0  0
   26.0060   25.2210   26.4020 C   0  0  0  0  0  0  0  0  0  0  0  0
   25.7380   27.4710   26.2680 C   0  0  0  0  0  0  0  0  0  0  0  0
   24.3650   27.2760   26.3360 C   0  0  0  0  0  0  0  0  0  0  0  0
   19.1740   16.6040   26.9190 C   0  0  0  0  0  0  0  0  0  0  0  0
   17.8290   16.7630   26.9310 C   0  0  0  0  0  0  0  0  0  0  0  0
   17.3180   17.9190   27.4150 C   0  0  0  0  0  0  0  0  0  0  0  0
   18.1260   18.9140   27.9060 C   0  0  0  0  0  0  0  0  0  0  0  0
   19.4750   18.7430   27.8780 C   0  0  0  0  0  0  0  0  0  0  0  0
   19.9890   17.5830   27.3830 C   0  0  0  0  0  0  0  0  0  0  0  0
   19.7370   15.3320   26.3790 C   0  0  0  0  0  0  0  0  0  0  0  0
   15.8490   18.0870   27.4460 C   0  0  0  0  0  0  0  0  0  0  0  0
   20.4320   19.7720   28.3830 C   0  0  0  0  0  0  0  0  0  0  0  0
   19.6090   15.2260   25.1000 F   0  0  0  0  0  0  0  0  0  0  0  0
   19.1500   14.3100   26.8800 F   0  0  0  0  0  0  0  0  0  0  0  0
   20.9710   15.1970   26.6960 F   0  0  0  0  0  0  0  0  0  0  0  0
   15.1530   17.3350   26.6580 F   0  0  0  0  0  0  0  0  0  0  0  0
   15.5610   19.3010   27.1000 F   0  0  0  0  0  0  0  0  0  0  0  0
   15.4270   17.7590   28.6320 F   0  0  0  0  0  0  0  0  0  0  0  0
   21.7140   19.5880   28.4780 N   0  0  0  0  0  0  0  0  0  0  0  0
   21.3230   21.5090   29.1570 N   0  0  0  0  0  0  0  0  0  0  0  0
   20.1940   20.9500   28.7950 N   0  0  0  0  0  0  0  0  0  0  0  0
   22.7350   23.4090   26.2380 N   0  0  0  0  0  0  0  0  0  0  0  0
   24.0820   23.6680   26.5920 N   0  0  0  0  0  0  0  0  0  0  0  0
   26.5280   26.4260   26.3040 N   0  0  0  0  0  0  0  0  0  0  0  0
   23.8270   26.0730   26.4390 N   0  0  0  0  0  0  0  0  0  0  0  0
   20.5800   23.2740   26.9660 O   0  0  0  0  0  0  0  0  0  0  0  0
  1 25  1  0  0  0  0
  3  2  1  0  0  0  0
  4  3  1  0  0  0  0
  5 28  1  0  0  0  0
  6  5  1  0  0  0  0
  7 29  2  0  0  0  0
  7  8  1  0  0  0  0
  8 30  1  0  0  0  0
  9 10  2  0  0  0  0
  9 14  1  0  0  0  0
 10 11  1  0  0  0  0
 11 16  1  0  0  0  0
 11 12  2  0  0  0  0
 13 12  1  0  0  0  0
 13 17  1  0  0  0  0
 14 13  2  0  0  0  0
 15 20  1  0  0  0  0
 15 19  1  0  0  0  0
 15  9  1  0  0  0  0
 16 23  1  0  0  0  0
 17 24  2  0  0  0  0
 17 26  2  0  0  0  0
 18 15  1  0  0  0  0
 21 16  1  0  0  0  0
 22 16  1  0  0  0  0
 24  1  1  0  0  0  0
 25  2  1  0  0  0  0
 26 25  1  0  0  0  0
 27 28  1  0  0  0  0
 27  4  1  0  0  0  0
 29  6  1  0  0  0  0
 30  5  2  0  0  0  0
 31  4  2  0  0  0  0
M  END
