ligand_pdbs\WFS.pdb
 OpenBabel06092512053D

 33 38  0  0  1  0  0  0  0  0999 V2000
   19.1480  -45.2950  -10.7010 N   0  0  0  0  0  0  0  0  0  0  0  0
   13.4880  -34.3650   -2.5830 N   0  0  0  0  0  0  0  0  0  0  0  0
   18.9290  -39.6500   -6.0410 C   0  0  1  0  0  0  0  0  0  0  0  0
   20.6800  -40.5790   -7.4800 C   0  0  0  0  0  0  0  0  0  0  0  0
   22.0540  -40.6280   -7.6880 C   0  0  0  0  0  0  0  0  0  0  0  0
   22.5810  -41.5220   -8.5710 C   0  0  0  0  0  0  0  0  0  0  0  0
   21.7500  -42.4430   -9.2500 C   0  0  1  0  0  0  0  0  0  0  0  0
   19.8230  -41.4300   -8.1440 C   0  0  0  0  0  0  0  0  0  0  0  0
   22.2500  -43.5130  -10.0070 C   0  0  0  0  0  0  0  0  0  0  0  0
   17.4700  -39.2350   -2.9850 C   0  0  2  0  0  0  0  0  0  0  0  0
   13.7350  -36.5010   -3.6100 C   0  0  1  0  0  0  0  0  0  0  0  0
   12.9390  -35.4000   -3.2400 C   0  0  0  0  0  0  0  0  0  0  0  0
   14.7880  -34.4460   -2.2750 C   0  0  0  0  0  0  0  0  0  0  0  0
   11.4740  -35.3140   -3.5470 C   0  0  0  0  0  0  0  0  0  0  0  0
   22.1530  -45.9920  -11.3410 Br  0  0  0  0  0  0  0  0  0  0  0  0
   21.4070  -44.4740  -10.4720 C   0  0  0  0  0  0  0  0  0  0  0  0
   20.0030  -44.3630  -10.2590 C   0  0  0  0  0  0  0  0  0  0  0  0
   19.4990  -43.3200   -9.5740 N   0  0  0  0  0  4  0  0  0  0  0  0
   20.3550  -42.3910   -9.0360 C   0  0  0  0  0  0  0  0  0  0  0  0
   20.2720  -39.6150   -6.5820 O   0  0  0  0  0  0  0  0  0  0  0  0
   18.6610  -40.9980   -5.3880 C   0  0  0  0  0  0  0  0  0  0  0  0
   18.8790  -38.6660   -4.8730 C   0  0  1  0  0  0  0  0  0  0  0  0
   17.6500  -37.9220   -4.9200 O   0  0  0  0  0  0  0  0  0  0  0  0
   17.1340  -37.8770   -3.6010 C   0  0  1  0  0  0  0  0  0  0  0  0
   17.4000  -39.2560   -1.5660 O   0  0  0  0  0  0  0  0  0  0  0  0
   18.8890  -39.4340   -3.5390 C   0  0  1  0  0  0  0  0  0  0  0  0
   19.9230  -39.0140   -2.6490 O   0  0  0  0  0  0  0  0  0  0  0  0
   19.2560  -40.8520   -3.9850 C   0  0  0  0  0  0  0  0  0  0  0  0
   15.7100  -37.5730   -3.6850 N   0  0  0  0  0  0  0  0  0  0  0  0
   14.7630  -38.3480   -4.3440 C   0  0  0  0  0  0  0  0  0  0  0  0
   13.5600  -37.7340   -4.3230 C   0  0  0  0  0  0  0  0  0  0  0  0
   15.6500  -35.4360   -2.5360 N   0  0  0  0  0  0  0  0  0  0  0  0
   15.0810  -36.4380   -3.2250 C   0  0  0  0  0  0  0  0  0  0  0  0
  1 17  1  0  0  0  0
  2 13  1  0  0  0  0
  3 20  1  1  0  0  0
  3 21  1  0  0  0  0
  3 22  1  0  0  0  0
  4 20  1  0  0  0  0
  5  4  1  0  0  0  0
  6  5  2  0  0  0  0
  7  9  1  1  0  0  0
  7 19  1  0  0  0  0
  7  6  1  0  0  0  0
  8  4  2  0  0  0  0
 10 25  1  1  0  0  0
 11 31  1  6  0  0  0
 11 12  1  0  0  0  0
 11 33  1  0  0  0  0
 12  2  2  0  0  0  0
 14 12  1  0  0  0  0
 15 16  1  0  0  0  0
 16 17  1  0  0  0  0
 16  9  2  0  0  0  0
 17 18  2  0  0  0  0
 18 19  2  0  0  0  0
 19  8  1  0  0  0  0
 21 28  1  0  0  0  0
 22 23  1  6  0  0  0
 22 26  1  0  0  0  0
 23 24  1  0  0  0  0
 24 29  1  6  0  0  0
 24 10  1  0  0  0  0
 26 10  1  0  0  0  0
 26 27  1  1  0  0  0
 28 26  1  0  0  0  0
 29 33  1  0  0  0  0
 30 31  2  0  0  0  0
 30 29  1  0  0  0  0
 32 13  1  0  0  0  0
 33 32  2  0  0  0  0
M  END
