ligand_pdbs\WFV.pdb
 OpenBabel06092512053D

 35 40  0  0  1  0  0  0  0  0999 V2000
   13.6550  -34.6160   -2.6220 N   0  0  0  0  0  0  0  0  0  0  0  0
   11.8050  -35.5740   -3.6190 N   0  0  0  0  0  0  0  0  0  0  0  0
   18.0530  -38.2920   -4.8620 C   0  0  0  0  0  0  0  0  0  0  0  0
   15.2840  -36.6520   -3.2580 C   0  0  0  0  0  0  0  0  0  0  0  0
   13.9340  -36.7520   -3.6520 C   0  0  1  0  0  0  0  0  0  0  0  0
   13.7530  -37.9710   -4.3240 C   0  0  0  0  0  0  0  0  0  0  0  0
   14.9590  -38.5850   -4.3230 C   0  0  0  0  0  0  0  0  0  0  0  0
   14.9600  -34.6650   -2.3180 C   0  0  0  0  0  0  0  0  0  0  0  0
   19.9930  -40.2170   -5.4720 C   0  0  2  0  0  0  0  0  0  0  0  0
   20.4630  -41.1070   -7.8270 C   0  0  0  0  0  0  0  0  0  0  0  0
   22.4410  -41.8720   -8.9440 C   0  0  0  0  0  0  0  0  0  0  0  0
   19.7470  -42.1340   -8.4200 C   0  0  0  0  0  0  0  0  0  0  0  0
   20.2620  -45.0940  -10.4370 C   0  0  0  0  0  0  0  0  0  0  0  0
   21.6610  -45.0220  -10.6970 C   0  0  0  0  0  0  0  0  0  0  0  0
   23.7970  -41.8570   -9.0550 F   0  0  0  0  0  0  0  0  0  0  0  0
   21.8580  -41.0790   -7.9860 C   0  0  0  0  0  0  0  0  0  0  0  0
   21.7680  -42.9960   -9.4670 C   0  0  0  0  0  0  0  0  0  0  0  0
   22.4080  -43.9960  -10.2350 C   0  0  0  0  0  0  0  0  0  0  0  0
   22.2390  -46.0160  -11.4100 F   0  0  0  0  0  0  0  0  0  0  0  0
   19.5350  -46.1120  -10.9100 N   0  0  0  0  0  0  0  0  0  0  0  0
   19.6390  -44.1430   -9.7110 N   0  0  0  0  0  4  0  0  0  0  0  0
   20.3860  -43.1070   -9.2230 C   0  0  0  0  0  0  0  0  0  0  0  0
   19.7710  -40.0580   -6.9870 C   0  0  0  0  0  0  0  0  0  0  0  0
   19.4520  -41.5150   -4.9070 C   0  0  0  0  0  0  0  0  0  0  0  0
   19.4030  -41.2780   -3.4090 C   0  0  0  0  0  0  0  0  0  0  0  0
   19.0340  -39.7970   -3.2150 C   0  0  1  0  0  0  0  0  0  0  0  0
   19.9110  -39.2720   -2.2150 O   0  0  0  0  0  0  0  0  0  0  0  0
   19.3500  -39.1200   -4.5910 C   0  0  2  0  0  0  0  0  0  0  0  0
   17.3240  -38.1430   -3.5350 C   0  0  2  0  0  0  0  0  0  0  0  0
   17.5550  -39.5070   -2.8980 C   0  0  2  0  0  0  0  0  0  0  0  0
   17.2180  -39.5200   -1.5170 O   0  0  0  0  0  0  0  0  0  0  0  0
   15.9010  -37.8040   -3.6890 N   0  0  0  0  0  0  0  0  0  0  0  0
   12.6250  -38.4390   -4.8900 F   0  0  0  0  0  0  0  0  0  0  0  0
   15.8480  -35.6310   -2.5900 N   0  0  0  0  0  0  0  0  0  0  0  0
   13.1020  -35.6540   -3.2990 C   0  0  0  0  0  0  0  0  0  0  0  0
  1  8  1  0  0  0  0
  2 35  1  0  0  0  0
  4 34  2  0  0  0  0
  5  6  1  1  0  0  0
  5 35  1  0  0  0  0
  5  4  1  0  0  0  0
  6  7  2  0  0  0  0
  7 32  1  0  0  0  0
  9 23  1  6  0  0  0
  9 24  1  0  0  0  0
  9 28  1  0  0  0  0
 10 23  1  0  0  0  0
 11 16  1  0  0  0  0
 12 10  1  0  0  0  0
 13 21  2  0  0  0  0
 14 13  1  0  0  0  0
 14 18  2  0  0  0  0
 15 11  1  0  0  0  0
 16 10  2  0  0  0  0
 17 22  1  0  0  0  0
 17 11  2  0  0  0  0
 18 17  1  0  0  0  0
 19 14  1  0  0  0  0
 20 13  1  0  0  0  0
 21 22  2  0  0  0  0
 22 12  1  0  0  0  0
 24 25  1  0  0  0  0
 25 26  1  0  0  0  0
 26 30  1  0  0  0  0
 26 27  1  1  0  0  0
 28  3  1  6  0  0  0
 28 26  1  0  0  0  0
 29  3  1  6  0  0  0
 29 30  1  0  0  0  0
 30 31  1  1  0  0  0
 32 29  1  0  0  0  0
 32  4  1  0  0  0  0
 33  6  1  0  0  0  0
 34  8  1  0  0  0  0
 35  1  2  0  0  0  0
M  END
