ligand_pdbs\YJG.pdb
 OpenBabel06092512053D

 50 52  0  0  0  0  0  0  0  0999 V2000
  121.0330  184.7860  144.7210 C   0  0  0  0  0  0  0  0  0  0  0  0
  122.4960  176.0240  143.6930 C   0  0  0  0  0  0  0  0  0  0  0  0
  122.7990  175.8440  142.3490 C   0  0  0  0  0  0  0  0  0  0  0  0
  120.4450  183.5800  144.1010 C   0  0  0  0  0  0  0  0  0  0  0  0
  124.0050  177.4540  138.1000 C   0  0  0  0  0  0  0  0  0  0  0  0
  123.1420  178.0760  139.1540 C   0  0  0  0  0  0  0  0  0  0  0  0
  123.7870  178.7310  140.2060 C   0  0  0  0  0  0  0  0  0  0  0  0
  123.0820  179.3430  141.2370 C   0  0  0  0  0  0  0  0  0  0  0  0
  121.6940  179.3180  141.2490 C   0  0  0  0  0  0  0  0  0  0  0  0
  121.3550  180.5980  143.3670 C   0  0  0  0  0  0  0  0  0  0  0  0
  120.2380  181.1160  144.2540 C   0  0  0  0  0  0  0  0  0  0  0  0
  121.9730  183.3660  146.3800 C   0  0  0  0  0  0  0  0  0  0  0  0
  121.7870  184.6980  145.8120 C   0  0  0  0  0  0  0  0  0  0  0  0
  121.0330  178.6680  140.2030 C   0  0  0  0  0  0  0  0  0  0  0  0
  121.7450  178.0540  139.1670 C   0  0  0  0  0  0  0  0  0  0  0  0
  121.0470  174.9450  139.3640 C   0  0  0  0  0  0  0  0  0  0  0  0
  122.3150  174.6950  140.1670 C   0  0  0  0  0  0  0  0  0  0  0  0
  122.0470  174.9310  141.6230 C   0  0  0  0  0  0  0  0  0  0  0  0
  121.4620  175.3030  144.2740 C   0  0  0  0  0  0  0  0  0  0  0  0
  120.7640  174.4220  143.4710 C   0  0  0  0  0  0  0  0  0  0  0  0
  120.8940  179.9100  142.2520 N   0  0  0  0  0  0  0  0  0  0  0  0
  120.7150  182.3870  144.7580 N   0  0  0  0  0  0  0  0  0  0  0  0
  121.4900  182.2850  145.8810 N   0  0  0  0  0  0  0  0  0  0  0  0
  121.3200  175.6490  138.1000 N   0  0  0  0  0  0  0  0  0  0  0  0
  121.0280  174.2190  142.1630 N   0  0  0  0  0  4  0  0  0  0  0  0
  122.5210  180.8070  143.6670 O   0  0  0  0  0  0  0  0  0  0  0  0
  119.7640  183.6750  143.0830 O   0  0  0  0  0  0  0  0  0  0  0  0
  121.3220  177.7390  136.6140 O   0  0  0  0  0  0  0  0  0  0  0  0
  119.4160  177.3630  138.1940 O   0  0  0  0  0  0  0  0  0  0  0  0
  120.8230  177.2520  137.8810 S   0  0  0  0  0  0  0  0  0  0  0  0
  120.7300  186.3030  143.9750 Cl  0  0  0  0  0  0  0  0  0  0  0  0
  123.0320  176.7640  144.2750 H   0  0  0  0  0  0  0  0  0  0  0  0
  123.6080  176.4020  141.8940 H   0  0  0  0  0  0  0  0  0  0  0  0
  123.7250  176.4200  137.9070 H   0  0  0  0  0  0  0  0  0  0  0  0
  125.0500  177.4300  138.4160 H   0  0  0  0  0  0  0  0  0  0  0  0
  123.9570  178.0290  137.1730 H   0  0  0  0  0  0  0  0  0  0  0  0
  124.8540  178.9080  140.1490 H   0  0  0  0  0  0  0  0  0  0  0  0
  123.6520  179.9810  141.8910 H   0  0  0  0  0  0  0  0  0  0  0  0
  120.0480  180.4430  145.0920 H   0  0  0  0  0  0  0  0  0  0  0  0
  119.3330  181.2460  143.6600 H   0  0  0  0  0  0  0  0  0  0  0  0
  122.1550  183.3700  147.4630 H   0  0  0  0  0  0  0  0  0  0  0  0
  119.9510  178.5990  140.2380 H   0  0  0  0  0  0  0  0  0  0  0  0
  120.5900  173.9840  139.1180 H   0  0  0  0  0  0  0  0  0  0  0  0
  120.3330  175.5100  139.9660 H   0  0  0  0  0  0  0  0  0  0  0  0
  123.1460  175.3190  139.8220 H   0  0  0  0  0  0  0  0  0  0  0  0
  122.6280  173.6540  140.0390 H   0  0  0  0  0  0  0  0  0  0  0  0
  121.3190  175.3060  145.3460 H   0  0  0  0  0  0  0  0  0  0  0  0
  119.9400  173.8430  143.8700 H   0  0  0  0  0  0  0  0  0  0  0  0
  119.9730  179.4950  142.3350 H   0  0  0  0  0  0  0  0  0  0  0  0
  121.7900  175.1380  137.3460 H   0  0  0  0  0  0  0  0  0  0  0  0
  1 13  2  0  0  0  0
  2 19  2  0  0  0  0
  2 32  1  0  0  0  0
  3  2  1  0  0  0  0
  4  1  1  0  0  0  0
  4 22  1  0  0  0  0
  5 35  1  0  0  0  0
  5  6  1  0  0  0  0
  6 15  2  0  0  0  0
  6  7  1  0  0  0  0
  7  8  2  0  0  0  0
  8  9  1  0  0  0  0
  8 38  1  0  0  0  0
  9 21  1  0  0  0  0
 10 26  2  0  0  0  0
 10 11  1  0  0  0  0
 11 22  1  0  0  0  0
 11 39  1  0  0  0  0
 12 41  1  0  0  0  0
 13 12  1  0  0  0  0
 14 42  1  0  0  0  0
 14  9  2  0  0  0  0
 15 14  1  0  0  0  0
 16 44  1  0  0  0  0
 16 17  1  0  0  0  0
 17 18  1  0  0  0  0
 18 25  2  0  0  0  0
 18  3  1  0  0  0  0
 19 47  1  0  0  0  0
 20 48  1  0  0  0  0
 20 19  1  0  0  0  0
 21 49  1  0  0  0  0
 21 10  1  0  0  0  0
 22 23  1  0  0  0  0
 23 12  2  0  0  0  0
 24 16  1  0  0  0  0
 25 20  2  0  0  0  0
 27  4  2  0  0  0  0
 28 30  2  0  0  0  0
 30 24  1  0  0  0  0
 30 29  2  0  0  0  0
 30 15  1  0  0  0  0
 31  1  1  0  0  0  0
 33  3  1  0  0  0  0
 34  5  1  0  0  0  0
 36  5  1  0  0  0  0
 37  7  1  0  0  0  0
 40 11  1  0  0  0  0
 43 16  1  0  0  0  0
 45 17  1  0  0  0  0
 46 17  1  0  0  0  0
 50 24  1  0  0  0  0
M  END
