ligand_pdbs\YLO.pdb
 OpenBabel06092512053D

 29 32  0  0  0  0  0  0  0  0999 V2000
  -25.4820   19.6610  -27.7480 C   0  0  0  0  0  0  0  0  0  0  0  0
  -24.4000   19.3000  -28.7640 C   0  0  0  0  0  0  0  0  0  0  0  0
  -23.9660   20.2130  -29.7310 C   0  0  0  0  0  0  0  0  0  0  0  0
  -22.9970   19.9350  -30.6880 C   0  0  0  0  0  0  0  0  0  0  0  0
  -22.4310   18.6860  -30.7340 C   0  0  0  0  0  0  0  0  0  0  0  0
  -22.8600   17.7590  -29.7610 C   0  0  0  0  0  0  0  0  0  0  0  0
  -23.8260   18.0440  -28.7870 C   0  0  0  0  0  0  0  0  0  0  0  0
  -21.4640   18.3890  -31.7080 O   0  0  0  0  0  0  0  0  0  0  0  0
  -20.8830   17.1320  -31.7450 C   0  0  0  0  0  0  0  0  0  0  0  0
  -19.5040   17.1470  -31.1800 C   0  0  0  0  0  0  0  0  0  0  0  0
  -18.7550   16.0240  -30.5940 N   0  0  0  0  0  0  0  0  0  0  0  0
  -18.0020   16.1000  -29.4370 C   0  0  0  0  0  0  0  0  0  0  0  0
  -17.7530   17.1060  -28.5190 C   0  0  0  0  0  0  0  0  0  0  0  0
  -16.9520   16.9330  -27.4310 C   0  0  0  0  0  0  0  0  0  0  0  0
  -16.3650   15.7180  -27.2160 C   0  0  0  0  0  0  0  0  0  0  0  0
  -16.6010   14.7160  -28.1310 C   0  0  0  0  0  0  0  0  0  0  0  0
  -17.4230   14.9030  -29.2500 C   0  0  0  0  0  0  0  0  0  0  0  0
  -17.8030   14.0750  -30.2940 N   0  0  0  0  0  4  0  0  0  0  0  0
  -18.6060   14.7750  -31.0920 C   0  0  0  0  0  0  0  0  0  0  0  0
  -19.2730   14.1180  -32.5060 S   0  0  0  0  0  0  0  0  0  0  0  0
  -20.4160   12.7880  -32.2870 C   0  0  0  0  0  0  0  0  0  0  0  0
  -20.3470   11.8000  -33.4460 C   0  0  0  0  0  0  0  0  0  0  0  0
  -21.4760   11.6320  -34.2440 O   0  0  0  0  0  0  0  0  0  0  0  0
  -21.7260   12.4660  -35.3130 C   0  0  0  0  0  0  0  0  0  0  0  0
  -20.8520   12.5700  -36.3660 C   0  0  0  0  0  0  0  0  0  0  0  0
  -21.1240   13.4000  -37.4420 C   0  0  0  0  0  0  0  0  0  0  0  0
  -22.2970   14.1240  -37.4630 C   0  0  0  0  0  0  0  0  0  0  0  0
  -23.1700   14.0250  -36.4160 C   0  0  0  0  0  0  0  0  0  0  0  0
  -22.8990   13.1920  -35.3540 C   0  0  0  0  0  0  0  0  0  0  0  0
  2  1  1  0  0  0  0
  3  2  2  0  0  0  0
  4  3  1  0  0  0  0
  5  4  2  0  0  0  0
  5  6  1  0  0  0  0
  6  7  2  0  0  0  0
  7  2  1  0  0  0  0
  8  5  1  0  0  0  0
  9  8  1  0  0  0  0
  9 10  1  0  0  0  0
 10 11  1  0  0  0  0
 11 12  1  0  0  0  0
 12 17  1  0  0  0  0
 12 13  2  0  0  0  0
 13 14  1  0  0  0  0
 14 15  2  0  0  0  0
 16 15  1  0  0  0  0
 17 16  1  0  0  0  0
 18 17  2  0  0  0  0
 19 11  1  0  0  0  0
 19 18  2  0  0  0  0
 20 21  1  0  0  0  0
 20 19  1  0  0  0  0
 22 21  1  0  0  0  0
 23 22  1  0  0  0  0
 24 23  1  0  0  0  0
 25 24  2  0  0  0  0
 26 25  1  0  0  0  0
 27 26  2  0  0  0  0
 27 28  1  0  0  0  0
 28 29  2  0  0  0  0
 29 24  1  0  0  0  0
M  END
