ligand_pdbs\YLQ.pdb
 OpenBabel06092512053D

 25 27  0  0  0  0  0  0  0  0999 V2000
   11.5980  -13.1890  -33.5290 C   0  0  0  0  0  0  0  0  0  0  0  0
   12.6370  -14.2550  -33.5740 C   0  0  0  0  0  0  0  0  0  0  0  0
   12.4600  -15.4180  -32.8830 C   0  0  0  0  0  0  0  0  0  0  0  0
   13.4700  -16.4470  -32.9520 C   0  0  0  0  0  0  0  0  0  0  0  0
   14.6460  -16.2530  -33.7150 C   0  0  0  0  0  0  0  0  0  0  0  0
   15.6080  -17.2140  -33.7800 O   0  0  0  0  0  0  0  0  0  0  0  0
   16.1260  -17.8270  -32.6480 C   0  0  0  0  0  0  0  0  0  0  0  0
   17.4860  -17.3990  -32.2430 C   0  0  0  0  0  0  0  0  0  0  0  0
   17.7230  -16.6840  -30.9540 N   0  0  0  0  0  0  0  0  0  0  0  0
   18.6970  -15.7680  -30.7000 C   0  0  0  0  0  0  0  0  0  0  0  0
   19.8340  -15.1870  -31.8810 S   0  0  0  0  0  0  0  0  0  0  0  0
   19.6500  -13.3830  -31.7530 C   0  0  0  0  0  0  0  0  0  0  0  0
   20.1360  -12.4770  -32.8130 C   0  0  0  0  0  0  0  0  0  0  0  0
   21.5840  -12.1500  -32.9290 C   0  0  0  0  0  0  0  0  0  0  0  0
   22.4260  -12.7080  -32.2070 O   0  0  0  0  0  0  0  0  0  0  0  0
   21.9490  -11.2930  -33.8030 O   0  0  0  0  0  0  0  0  0  0  0  0
   18.6440  -15.3350  -29.4340 N   0  0  0  0  0  4  0  0  0  0  0  0
   17.6020  -15.9890  -28.8360 C   0  0  0  0  0  0  0  0  0  0  0  0
   17.1020  -15.9210  -27.5210 C   0  0  0  0  0  0  0  0  0  0  0  0
   16.0200  -16.7200  -27.2120 C   0  0  0  0  0  0  0  0  0  0  0  0
   15.4470  -17.5730  -28.1370 C   0  0  0  0  0  0  0  0  0  0  0  0
   15.9410  -17.6510  -29.4520 C   0  0  0  0  0  0  0  0  0  0  0  0
   17.0260  -16.8360  -29.7780 C   0  0  0  0  0  0  0  0  0  0  0  0
   14.8180  -15.0550  -34.4210 C   0  0  0  0  0  0  0  0  0  0  0  0
   13.8350  -14.0660  -34.3570 C   0  0  0  0  0  0  0  0  0  0  0  0
  2  1  1  0  0  0  0
  2  3  1  0  0  0  0
  4  3  2  0  0  0  0
  5  4  1  0  0  0  0
  6  5  1  0  0  0  0
  6  7  1  0  0  0  0
  7  8  1  0  0  0  0
  8  9  1  0  0  0  0
  9 10  1  0  0  0  0
  9 23  1  0  0  0  0
 10 17  2  0  0  0  0
 11 12  1  0  0  0  0
 11 10  1  0  0  0  0
 13 12  1  0  0  0  0
 14 13  1  0  0  0  0
 14 15  1  0  0  0  0
 16 14  2  0  0  0  0
 17 18  2  0  0  0  0
 18 19  1  0  0  0  0
 19 20  2  0  0  0  0
 21 20  1  0  0  0  0
 22 21  1  0  0  0  0
 23 22  2  0  0  0  0
 23 18  1  0  0  0  0
 24 25  1  0  0  0  0
 24  5  2  0  0  0  0
 25  2  2  0  0  0  0
M  END
