MODEL 1
REMARK VINA RESULT:      -7.2      0.000      0.000
REMARK  Name = ligand_pdbs\198_A_501 .pdb
REMARK  7 active torsions:
REMARK  status: ('A' for Active; 'I' for Inactive)
REMARK    1  A    between atoms: C15_7  and  S14_8
REMARK    2  A    between atoms: S14_8  and  C13_11
REMARK    3  A    between atoms: C13_11  and  C11_12
REMARK    4  A    between atoms: C11_12  and  C10_15
REMARK    5  A    between atoms: N9_17  and  C1_18
REMARK    6  A    between atoms: C4_22  and  C8_23
REMARK    7  A    between atoms: C3_25  and  C7_26
REMARK                            x       y       z     vdW  Elec       q    Type
REMARK                         _______ _______ _______ _____ _____    ______ ____
ROOT
ATOM      1  C10 198 A 501      28.905   1.817   5.190  0.00  0.00    +0.000 C 
ATOM      2  O10 198 A 501      29.175   2.134   4.032  0.00  0.00    +0.000 OA
ATOM      3  N9  198 A 501      28.099   2.498   6.001  0.00  0.00    +0.000 NA
ENDROOT
BRANCH   3   4
ATOM      4  C1  198 A 501      27.561   3.693   5.752  0.00  0.00    +0.000 A 
ATOM      5  C2  198 A 501      26.203   3.885   5.506  0.00  0.00    +0.000 A 
ATOM      6  C6  198 A 501      28.426   4.774   5.624  0.00  0.00    +0.000 A 
ATOM      7  C5  198 A 501      27.923   6.021   5.265  0.00  0.00    +0.000 A 
ATOM      8  C4  198 A 501      26.564   6.198   5.024  0.00  0.00    +0.000 A 
ATOM      9  C3  198 A 501      25.675   5.123   5.132  0.00  0.00    +0.000 A 
BRANCH   9  10
ATOM     10  C7  198 A 501      24.164   5.234   4.850  0.00  0.00    +0.000 C 
ATOM     11  F7B 198 A 501      23.528   4.224   5.433  0.00  0.00    +0.000 F 
ATOM     12  F7C 198 A 501      23.605   6.362   5.281  0.00  0.00    +0.000 F 
ATOM     13  F7A 198 A 501      23.893   5.187   3.548  0.00  0.00    +0.000 F 
ENDBRANCH   9  10
BRANCH   8  14
ATOM     14  C8  198 A 501      26.151   7.528   4.691  0.00  0.00    +0.000 C 
ATOM     15  N8  198 A 501      25.823   8.589   4.443  0.00  0.00    +0.000 NA
ENDBRANCH   8  14
ENDBRANCH   3   4
BRANCH   1  16
ATOM     16  C11 198 A 501      29.396   0.488   5.770  0.00  0.00    +0.000 C 
ATOM     17  O11 198 A 501      28.423   0.014   6.705  0.00  0.00    +0.000 OA
ATOM     18  C12 198 A 501      30.729   0.722   6.484  0.00  0.00    +0.000 C 
BRANCH  16  19
ATOM     19  C13 198 A 501      29.566  -0.546   4.654  0.00  0.00    +0.000 C 
BRANCH  19  20
ATOM     20  S14 198 A 501      28.036  -1.441   4.196  0.00  0.00    +0.000 S 
ATOM     21  O14 198 A 501      27.606  -2.335   5.322  0.00  0.00    +0.000 OA
ATOM     22  O15 198 A 501      28.287  -2.262   2.966  0.00  0.00    +0.000 OA
BRANCH  20  29
ATOM     23  C16 198 A 501      26.665   0.318   2.622  0.00  0.00    +0.000 A 
ATOM     24  C17 198 A 501      25.642   1.227   2.367  0.00  0.00    +0.000 A 
ATOM     25  C18 198 A 501      24.723   1.534   3.366  0.00  0.00    +0.000 A 
ATOM     26  F18 198 A 501      23.729   2.413   3.128  0.00  0.00    +0.000 F 
ATOM     27  C19 198 A 501      24.827   0.936   4.618  0.00  0.00    +0.000 A 
ATOM     28  C20 198 A 501      25.851   0.029   4.873  0.00  0.00    +0.000 A 
ATOM     29  C15 198 A 501      26.769  -0.280   3.875  0.00  0.00    +0.000 A 
ENDBRANCH  20  29
ENDBRANCH  19  20
ENDBRANCH  16  19
ENDBRANCH   1  16
TORSDOF 7
ENDMDL
MODEL 2
REMARK VINA RESULT:      -5.5      2.443      3.930
REMARK  Name = ligand_pdbs\198_A_501 .pdb
REMARK  7 active torsions:
REMARK  status: ('A' for Active; 'I' for Inactive)
REMARK    1  A    between atoms: C15_7  and  S14_8
REMARK    2  A    between atoms: S14_8  and  C13_11
REMARK    3  A    between atoms: C13_11  and  C11_12
REMARK    4  A    between atoms: C11_12  and  C10_15
REMARK    5  A    between atoms: N9_17  and  C1_18
REMARK    6  A    between atoms: C4_22  and  C8_23
REMARK    7  A    between atoms: C3_25  and  C7_26
REMARK                            x       y       z     vdW  Elec       q    Type
REMARK                         _______ _______ _______ _____ _____    ______ ____
ROOT
ATOM      1  C10 198 A 501      25.931   1.498   3.384  0.00  0.00    +0.000 C 
ATOM      2  O10 198 A 501      26.238   2.026   2.315  0.00  0.00    +0.000 OA
ATOM      3  N9  198 A 501      25.445   2.141   4.442  0.00  0.00    +0.000 NA
ENDROOT
BRANCH   3   4
ATOM      4  C1  198 A 501      25.337   3.464   4.577  0.00  0.00    +0.000 A 
ATOM      5  C2  198 A 501      26.435   4.318   4.651  0.00  0.00    +0.000 A 
ATOM      6  C6  198 A 501      24.064   3.991   4.762  0.00  0.00    +0.000 A 
ATOM      7  C5  198 A 501      23.909   5.352   5.007  0.00  0.00    +0.000 A 
ATOM      8  C4  198 A 501      25.016   6.193   5.077  0.00  0.00    +0.000 A 
ATOM      9  C3  198 A 501      26.309   5.685   4.909  0.00  0.00    +0.000 A 
BRANCH   9  10
ATOM     10  C7  198 A 501      27.582   6.547   5.005  0.00  0.00    +0.000 C 
ATOM     11  F7B 198 A 501      28.536   6.016   4.247  0.00  0.00    +0.000 F 
ATOM     12  F7C 198 A 501      27.423   7.810   4.620  0.00  0.00    +0.000 F 
ATOM     13  F7A 198 A 501      28.046   6.619   6.250  0.00  0.00    +0.000 F 
ENDBRANCH   9  10
BRANCH   8  14
ATOM     14  C8  198 A 501      24.741   7.579   5.304  0.00  0.00    +0.000 C 
ATOM     15  N8  198 A 501      24.530   8.680   5.499  0.00  0.00    +0.000 NA
ENDBRANCH   8  14
ENDBRANCH   3   4
BRANCH   1  16
ATOM     16  C11 198 A 501      25.964  -0.025   3.540  0.00  0.00    +0.000 C 
ATOM     17  O11 198 A 501      24.738  -0.559   3.034  0.00  0.00    +0.000 OA
ATOM     18  C12 198 A 501      26.105  -0.367   5.024  0.00  0.00    +0.000 C 
BRANCH  16  19
ATOM     19  C13 198 A 501      27.134  -0.613   2.746  0.00  0.00    +0.000 C 
BRANCH  19  20
ATOM     20  S14 198 A 501      28.554  -1.161   3.764  0.00  0.00    +0.000 S 
ATOM     21  O14 198 A 501      29.682  -1.602   2.879  0.00  0.00    +0.000 OA
ATOM     22  O15 198 A 501      28.128  -2.298   4.644  0.00  0.00    +0.000 OA
BRANCH  20  29
ATOM     23  C16 198 A 501      29.178   1.456   4.220  0.00  0.00    +0.000 A 
ATOM     24  C17 198 A 501      29.592   2.518   5.020  0.00  0.00    +0.000 A 
ATOM     25  C18 198 A 501      29.921   2.295   6.353  0.00  0.00    +0.000 A 
ATOM     26  F18 198 A 501      30.321   3.317   7.135  0.00  0.00    +0.000 F 
ATOM     27  C19 198 A 501      29.838   1.013   6.887  0.00  0.00    +0.000 A 
ATOM     28  C20 198 A 501      29.426  -0.049   6.087  0.00  0.00    +0.000 A 
ATOM     29  C15 198 A 501      29.096   0.173   4.755  0.00  0.00    +0.000 A 
ENDBRANCH  20  29
ENDBRANCH  19  20
ENDBRANCH  16  19
ENDBRANCH   1  16
TORSDOF 7
ENDMDL
MODEL 3
REMARK VINA RESULT:      -5.3      1.749      2.370
REMARK  Name = ligand_pdbs\198_A_501 .pdb
REMARK  7 active torsions:
REMARK  status: ('A' for Active; 'I' for Inactive)
REMARK    1  A    between atoms: C15_7  and  S14_8
REMARK    2  A    between atoms: S14_8  and  C13_11
REMARK    3  A    between atoms: C13_11  and  C11_12
REMARK    4  A    between atoms: C11_12  and  C10_15
REMARK    5  A    between atoms: N9_17  and  C1_18
REMARK    6  A    between atoms: C4_22  and  C8_23
REMARK    7  A    between atoms: C3_25  and  C7_26
REMARK                            x       y       z     vdW  Elec       q    Type
REMARK                         _______ _______ _______ _____ _____    ______ ____
ROOT
ATOM      1  C10 198 A 501      28.678   1.771   5.859  0.00  0.00    +0.000 C 
ATOM      2  O10 198 A 501      27.837   1.937   6.742  0.00  0.00    +0.000 OA
ATOM      3  N9  198 A 501      28.857   2.573   4.813  0.00  0.00    +0.000 NA
ENDROOT
BRANCH   3   4
ATOM      4  C1  198 A 501      28.079   3.601   4.469  0.00  0.00    +0.000 A 
ATOM      5  C2  198 A 501      28.149   4.851   5.080  0.00  0.00    +0.000 A 
ATOM      6  C6  198 A 501      27.078   3.367   3.533  0.00  0.00    +0.000 A 
ATOM      7  C5  198 A 501      26.179   4.380   3.216  0.00  0.00    +0.000 A 
ATOM      8  C4  198 A 501      26.262   5.624   3.833  0.00  0.00    +0.000 A 
ATOM      9  C3  198 A 501      27.251   5.881   4.790  0.00  0.00    +0.000 A 
BRANCH   9  10
ATOM     10  C7  198 A 501      27.386   7.221   5.538  0.00  0.00    +0.000 C 
ATOM     11  F7B 198 A 501      28.389   7.145   6.407  0.00  0.00    +0.000 F 
ATOM     12  F7C 198 A 501      27.616   8.270   4.752  0.00  0.00    +0.000 F 
ATOM     13  F7A 198 A 501      26.284   7.530   6.217  0.00  0.00    +0.000 F 
ENDBRANCH   9  10
BRANCH   8  14
ATOM     14  C8  198 A 501      25.306   6.603   3.412  0.00  0.00    +0.000 C 
ATOM     15  N8  198 A 501      24.557   7.388   3.068  0.00  0.00    +0.000 NA
ENDBRANCH   8  14
ENDBRANCH   3   4
BRANCH   1  16
ATOM     16  C11 198 A 501      29.716   0.651   5.971  0.00  0.00    +0.000 C 
ATOM     17  O11 198 A 501      29.376  -0.173   7.089  0.00  0.00    +0.000 OA
ATOM     18  C12 198 A 501      31.096   1.276   6.191  0.00  0.00    +0.000 C 
BRANCH  16  19
ATOM     19  C13 198 A 501      29.716  -0.201   4.699  0.00  0.00    +0.000 C 
BRANCH  19  20
ATOM     20  S14 198 A 501      28.264  -1.301   4.512  0.00  0.00    +0.000 S 
ATOM     21  O14 198 A 501      27.944  -1.958   5.822  0.00  0.00    +0.000 OA
ATOM     22  O15 198 A 501      28.560  -2.347   3.480  0.00  0.00    +0.000 OA
BRANCH  20  29
ATOM     23  C16 198 A 501      25.944   0.075   4.932  0.00  0.00    +0.000 A 
ATOM     24  C17 198 A 501      24.862   0.849   4.522  0.00  0.00    +0.000 A 
ATOM     25  C18 198 A 501      24.728   1.197   3.181  0.00  0.00    +0.000 A 
ATOM     26  F18 198 A 501      23.683   1.947   2.776  0.00  0.00    +0.000 F 
ATOM     27  C19 198 A 501      25.672   0.773   2.251  0.00  0.00    +0.000 A 
ATOM     28  C20 198 A 501      26.752  -0.002   2.662  0.00  0.00    +0.000 A 
ATOM     29  C15 198 A 501      26.889  -0.350   4.001  0.00  0.00    +0.000 A 
ENDBRANCH  20  29
ENDBRANCH  19  20
ENDBRANCH  16  19
ENDBRANCH   1  16
TORSDOF 7
ENDMDL
MODEL 4
REMARK VINA RESULT:      -5.1      3.996      6.098
REMARK  Name = ligand_pdbs\198_A_501 .pdb
REMARK  7 active torsions:
REMARK  status: ('A' for Active; 'I' for Inactive)
REMARK    1  A    between atoms: C15_7  and  S14_8
REMARK    2  A    between atoms: S14_8  and  C13_11
REMARK    3  A    between atoms: C13_11  and  C11_12
REMARK    4  A    between atoms: C11_12  and  C10_15
REMARK    5  A    between atoms: N9_17  and  C1_18
REMARK    6  A    between atoms: C4_22  and  C8_23
REMARK    7  A    between atoms: C3_25  and  C7_26
REMARK                            x       y       z     vdW  Elec       q    Type
REMARK                         _______ _______ _______ _____ _____    ______ ____
ROOT
ATOM      1  C10 198 A 501      26.656   5.628   4.754  0.00  0.00    +0.000 C 
ATOM      2  O10 198 A 501      27.161   6.031   5.801  0.00  0.00    +0.000 OA
ATOM      3  N9  198 A 501      26.932   4.465   4.170  0.00  0.00    +0.000 NA
ENDROOT
BRANCH   3   4
ATOM      4  C1  198 A 501      27.888   3.610   4.536  0.00  0.00    +0.000 A 
ATOM      5  C2  198 A 501      28.230   2.481   3.795  0.00  0.00    +0.000 A 
ATOM      6  C6  198 A 501      28.489   3.807   5.775  0.00  0.00    +0.000 A 
ATOM      7  C5  198 A 501      29.419   2.886   6.245  0.00  0.00    +0.000 A 
ATOM      8  C4  198 A 501      29.752   1.763   5.493  0.00  0.00    +0.000 A 
ATOM      9  C3  198 A 501      29.151   1.534   4.250  0.00  0.00    +0.000 A 
BRANCH   9  10
ATOM     10  C7  198 A 501      29.444   0.299   3.376  0.00  0.00    +0.000 C 
ATOM     11  F7B 198 A 501      30.585   0.480   2.719  0.00  0.00    +0.000 F 
ATOM     12  F7C 198 A 501      29.548  -0.842   4.052  0.00  0.00    +0.000 F 
ATOM     13  F7A 198 A 501      28.488   0.084   2.476  0.00  0.00    +0.000 F 
ENDBRANCH   9  10
BRANCH   8  14
ATOM     14  C8  198 A 501      30.742   0.897   6.057  0.00  0.00    +0.000 C 
ATOM     15  N8  198 A 501      31.538   0.222   6.511  0.00  0.00    +0.000 NA
ENDBRANCH   8  14
ENDBRANCH   3   4
BRANCH   1  16
ATOM     16  C11 198 A 501      25.524   6.410   4.082  0.00  0.00    +0.000 C 
ATOM     17  O11 198 A 501      26.083   7.209   3.036  0.00  0.00    +0.000 OA
ATOM     18  C12 198 A 501      24.861   7.313   5.124  0.00  0.00    +0.000 C 
BRANCH  16  19
ATOM     19  C13 198 A 501      24.496   5.446   3.484  0.00  0.00    +0.000 C 
BRANCH  19  20
ATOM     20  S14 198 A 501      23.803   4.232   4.667  0.00  0.00    +0.000 S 
ATOM     21  O14 198 A 501      22.311   4.166   4.522  0.00  0.00    +0.000 OA
ATOM     22  O15 198 A 501      24.157   4.639   6.066  0.00  0.00    +0.000 OA
BRANCH  20  29
ATOM     23  C16 198 A 501      24.506   2.168   3.025  0.00  0.00    +0.000 A 
ATOM     24  C17 198 A 501      25.063   0.920   2.760  0.00  0.00    +0.000 A 
ATOM     25  C18 198 A 501      25.592   0.162   3.800  0.00  0.00    +0.000 A 
ATOM     26  F18 198 A 501      26.134  -1.047   3.551  0.00  0.00    +0.000 F 
ATOM     27  C19 198 A 501      25.564   0.649   5.103  0.00  0.00    +0.000 A 
ATOM     28  C20 198 A 501      25.006   1.896   5.368  0.00  0.00    +0.000 A 
ATOM     29  C15 198 A 501      24.478   2.655   4.329  0.00  0.00    +0.000 A 
ENDBRANCH  20  29
ENDBRANCH  19  20
ENDBRANCH  16  19
ENDBRANCH   1  16
TORSDOF 7
ENDMDL
MODEL 5
REMARK VINA RESULT:      -4.8      1.566      2.105
REMARK  Name = ligand_pdbs\198_A_501 .pdb
REMARK  7 active torsions:
REMARK  status: ('A' for Active; 'I' for Inactive)
REMARK    1  A    between atoms: C15_7  and  S14_8
REMARK    2  A    between atoms: S14_8  and  C13_11
REMARK    3  A    between atoms: C13_11  and  C11_12
REMARK    4  A    between atoms: C11_12  and  C10_15
REMARK    5  A    between atoms: N9_17  and  C1_18
REMARK    6  A    between atoms: C4_22  and  C8_23
REMARK    7  A    between atoms: C3_25  and  C7_26
REMARK                            x       y       z     vdW  Elec       q    Type
REMARK                         _______ _______ _______ _____ _____    ______ ____
ROOT
ATOM      1  C10 198 A 501      28.795   1.759   5.244  0.00  0.00    +0.000 C 
ATOM      2  O10 198 A 501      29.181   2.171   4.150  0.00  0.00    +0.000 OA
ATOM      3  N9  198 A 501      27.711   2.189   5.884  0.00  0.00    +0.000 NA
ENDROOT
BRANCH   3   4
ATOM      4  C1  198 A 501      26.945   3.220   5.526  0.00  0.00    +0.000 A 
ATOM      5  C2  198 A 501      27.381   4.543   5.550  0.00  0.00    +0.000 A 
ATOM      6  C6  198 A 501      25.613   2.959   5.222  0.00  0.00    +0.000 A 
ATOM      7  C5  198 A 501      24.750   4.012   4.940  0.00  0.00    +0.000 A 
ATOM      8  C4  198 A 501      25.201   5.329   4.967  0.00  0.00    +0.000 A 
ATOM      9  C3  198 A 501      26.532   5.620   5.284  0.00  0.00    +0.000 A 
BRANCH   9  10
ATOM     10  C7  198 A 501      27.096   7.052   5.365  0.00  0.00    +0.000 C 
ATOM     11  F7B 198 A 501      26.980   7.642   4.179  0.00  0.00    +0.000 F 
ATOM     12  F7C 198 A 501      26.495   7.830   6.260  0.00  0.00    +0.000 F 
ATOM     13  F7A 198 A 501      28.384   7.066   5.700  0.00  0.00    +0.000 F 
ENDBRANCH   9  10
BRANCH   8  14
ATOM     14  C8  198 A 501      24.236   6.333   4.633  0.00  0.00    +0.000 C 
ATOM     15  N8  198 A 501      23.467   7.123   4.352  0.00  0.00    +0.000 NA
ENDBRANCH   8  14
ENDBRANCH   3   4
BRANCH   1  16
ATOM     16  C11 198 A 501      29.490   0.574   5.920  0.00  0.00    +0.000 C 
ATOM     17  O11 198 A 501      28.594   0.010   6.881  0.00  0.00    +0.000 OA
ATOM     18  C12 198 A 501      30.753   1.077   6.623  0.00  0.00    +0.000 C 
BRANCH  16  19
ATOM     19  C13 198 A 501      29.850  -0.492   4.882  0.00  0.00    +0.000 C 
BRANCH  19  20
ATOM     20  S14 198 A 501      28.461  -1.571   4.376  0.00  0.00    +0.000 S 
ATOM     21  O14 198 A 501      27.947  -2.338   5.558  0.00  0.00    +0.000 OA
ATOM     22  O15 198 A 501      28.930  -2.527   3.319  0.00  0.00    +0.000 OA
BRANCH  20  29
ATOM     23  C16 198 A 501      27.339   0.100   2.533  0.00  0.00    +0.000 A 
ATOM     24  C17 198 A 501      26.300   0.873   2.019  0.00  0.00    +0.000 A 
ATOM     25  C18 198 A 501      25.095   0.961   2.709  0.00  0.00    +0.000 A 
ATOM     26  F18 198 A 501      24.085   1.706   2.219  0.00  0.00    +0.000 F 
ATOM     27  C19 198 A 501      24.928   0.281   3.912  0.00  0.00    +0.000 A 
ATOM     28  C20 198 A 501      25.966  -0.489   4.426  0.00  0.00    +0.000 A 
ATOM     29  C15 198 A 501      27.171  -0.580   3.736  0.00  0.00    +0.000 A 
ENDBRANCH  20  29
ENDBRANCH  19  20
ENDBRANCH  16  19
ENDBRANCH   1  16
TORSDOF 7
ENDMDL
MODEL 6
REMARK VINA RESULT:      -4.3      1.224      1.473
REMARK  Name = ligand_pdbs\198_A_501 .pdb
REMARK  7 active torsions:
REMARK  status: ('A' for Active; 'I' for Inactive)
REMARK    1  A    between atoms: C15_7  and  S14_8
REMARK    2  A    between atoms: S14_8  and  C13_11
REMARK    3  A    between atoms: C13_11  and  C11_12
REMARK    4  A    between atoms: C11_12  and  C10_15
REMARK    5  A    between atoms: N9_17  and  C1_18
REMARK    6  A    between atoms: C4_22  and  C8_23
REMARK    7  A    between atoms: C3_25  and  C7_26
REMARK                            x       y       z     vdW  Elec       q    Type
REMARK                         _______ _______ _______ _____ _____    ______ ____
ROOT
ATOM      1  C10 198 A 501      29.652   1.789   5.812  0.00  0.00    +0.000 C 
ATOM      2  O10 198 A 501      30.545   2.591   5.538  0.00  0.00    +0.000 OA
ATOM      3  N9  198 A 501      28.350   2.067   5.814  0.00  0.00    +0.000 NA
ENDROOT
BRANCH   3   4
ATOM      4  C1  198 A 501      27.804   3.273   5.659  0.00  0.00    +0.000 A 
ATOM      5  C2  198 A 501      27.185   3.688   4.481  0.00  0.00    +0.000 A 
ATOM      6  C6  198 A 501      27.966   4.191   6.690  0.00  0.00    +0.000 A 
ATOM      7  C5  198 A 501      27.503   5.494   6.535  0.00  0.00    +0.000 A 
ATOM      8  C4  198 A 501      26.885   5.893   5.353  0.00  0.00    +0.000 A 
ATOM      9  C3  198 A 501      26.722   4.992   4.295  0.00  0.00    +0.000 A 
BRANCH   9  10
ATOM     10  C7  198 A 501      26.078   5.369   2.946  0.00  0.00    +0.000 C 
ATOM     11  F7B 198 A 501      24.956   6.048   3.164  0.00  0.00    +0.000 F 
ATOM     12  F7C 198 A 501      26.848   6.112   2.157  0.00  0.00    +0.000 F 
ATOM     13  F7A 198 A 501      25.769   4.297   2.221  0.00  0.00    +0.000 F 
ENDBRANCH   9  10
BRANCH   8  14
ATOM     14  C8  198 A 501      26.419   7.246   5.311  0.00  0.00    +0.000 C 
ATOM     15  N8  198 A 501      26.061   8.326   5.288  0.00  0.00    +0.000 NA
ENDBRANCH   8  14
ENDBRANCH   3   4
BRANCH   1  16
ATOM     16  C11 198 A 501      29.976   0.313   6.054  0.00  0.00    +0.000 C 
ATOM     17  O11 198 A 501      29.015  -0.218   6.970  0.00  0.00    +0.000 OA
ATOM     18  C12 198 A 501      31.378   0.206   6.656  0.00  0.00    +0.000 C 
BRANCH  16  19
ATOM     19  C13 198 A 501      29.902  -0.468   4.739  0.00  0.00    +0.000 C 
BRANCH  19  20
ATOM     20  S14 198 A 501      28.366  -1.437   4.506  0.00  0.00    +0.000 S 
ATOM     21  O14 198 A 501      27.998  -2.133   5.783  0.00  0.00    +0.000 OA
ATOM     22  O15 198 A 501      28.575  -2.451   3.420  0.00  0.00    +0.000 OA
BRANCH  20  29
ATOM     23  C16 198 A 501      27.007   0.163   2.762  0.00  0.00    +0.000 A 
ATOM     24  C17 198 A 501      25.961   1.009   2.402  0.00  0.00    +0.000 A 
ATOM     25  C18 198 A 501      24.980   1.334   3.334  0.00  0.00    +0.000 A 
ATOM     26  F18 198 A 501      23.964   2.151   2.993  0.00  0.00    +0.000 F 
ATOM     27  C19 198 A 501      25.044   0.816   4.624  0.00  0.00    +0.000 A 
ATOM     28  C20 198 A 501      26.090  -0.028   4.984  0.00  0.00    +0.000 A 
ATOM     29  C15 198 A 501      27.070  -0.355   4.053  0.00  0.00    +0.000 A 
ENDBRANCH  20  29
ENDBRANCH  19  20
ENDBRANCH  16  19
ENDBRANCH   1  16
TORSDOF 7
ENDMDL
