MODEL 1
REMARK VINA RESULT:      -5.1      0.000      0.000
REMARK  Name = ligand_pdbs\4HY_A_933 .pdb
REMARK  4 active torsions:
REMARK  status: ('A' for Active; 'I' for Inactive)
REMARK    1  A    between atoms: C1_1  and  C13_13
REMARK    2  A    between atoms: C2_2  and  O2_19
REMARK    3  A    between atoms: C7_7  and  O2_19
REMARK    4  A    between atoms: C13_13  and  C14_14
REMARK                            x       y       z     vdW  Elec       q    Type
REMARK                         _______ _______ _______ _____ _____    ______ ____
ROOT
ATOM      1  C1  4HY A 933      27.698  -0.183   3.570  0.00  0.00    +0.000 A 
ATOM      2  C3  4HY A 933      26.414   0.349   3.633  0.00  0.00    +0.000 A 
ATOM      3  C5  4HY A 933      26.179   1.529   4.332  0.00  0.00    +0.000 A 
ATOM      4  C7  4HY A 933      27.230   2.186   4.970  0.00  0.00    +0.000 A 
ATOM      5  C9  4HY A 933      28.514   1.647   4.911  0.00  0.00    +0.000 A 
ATOM      6  C11 4HY A 933      28.750   0.468   4.211  0.00  0.00    +0.000 A 
ATOM      7  I1  4HY A 933      24.226   2.282   4.439  0.00  0.00    +0.000 I 
ATOM      8  I3  4HY A 933      30.071   2.532   5.998  0.00  0.00    +0.000 I 
ENDROOT
BRANCH   1   9
ATOM      9  C13 4HY A 933      27.957  -1.475   2.792  0.00  0.00    +0.000 C 
BRANCH   9  10
ATOM     10  C14 4HY A 933      28.453  -2.568   3.742  0.00  0.00    +0.000 C 
ATOM     11  O3  4HY A 933      29.624  -2.973   3.581  0.00  0.00    +0.000 OA
ATOM     12  O4  4HY A 933      27.648  -2.974   4.608  0.00  0.00    +0.000 OA
ENDBRANCH   9  10
ENDBRANCH   1   9
BRANCH   4  13
ATOM     13  O2  4HY A 933      27.012   3.305   5.714  0.00  0.00    +0.000 OA
BRANCH  13  14
ATOM     14  C2  4HY A 933      26.655   4.436   5.040  0.00  0.00    +0.000 A 
ATOM     15  C4  4HY A 933      26.130   5.563   5.670  0.00  0.00    +0.000 A 
ATOM     16  C6  4HY A 933      25.787   6.690   4.927  0.00  0.00    +0.000 A 
ATOM     17  C8  4HY A 933      25.954   6.687   3.545  0.00  0.00    +0.000 A 
ATOM     18  C10 4HY A 933      26.475   5.564   2.910  0.00  0.00    +0.000 A 
ATOM     19  C12 4HY A 933      26.826   4.445   3.658  0.00  0.00    +0.000 A 
ATOM     20  I2  4HY A 933      25.130   8.440   5.874  0.00  0.00    +0.000 I 
ATOM     21  O1  4HY A 933      25.596   7.777   2.814  0.00  0.00    +0.000 OA
ENDBRANCH  13  14
ENDBRANCH   4  13
TORSDOF 4
ENDMDL
MODEL 2
REMARK VINA RESULT:      -5.0      0.146      2.149
REMARK  Name = ligand_pdbs\4HY_A_933 .pdb
REMARK  4 active torsions:
REMARK  status: ('A' for Active; 'I' for Inactive)
REMARK    1  A    between atoms: C1_1  and  C13_13
REMARK    2  A    between atoms: C2_2  and  O2_19
REMARK    3  A    between atoms: C7_7  and  O2_19
REMARK    4  A    between atoms: C13_13  and  C14_14
REMARK                            x       y       z     vdW  Elec       q    Type
REMARK                         _______ _______ _______ _____ _____    ______ ____
ROOT
ATOM      1  C1  4HY A 933      27.679  -0.154   3.660  0.00  0.00    +0.000 A 
ATOM      2  C3  4HY A 933      28.716   0.486   4.331  0.00  0.00    +0.000 A 
ATOM      3  C5  4HY A 933      28.459   1.616   5.103  0.00  0.00    +0.000 A 
ATOM      4  C7  4HY A 933      27.160   2.109   5.209  0.00  0.00    +0.000 A 
ATOM      5  C9  4HY A 933      26.124   1.470   4.531  0.00  0.00    +0.000 A 
ATOM      6  C11 4HY A 933      26.380   0.341   3.760  0.00  0.00    +0.000 A 
ATOM      7  I1  4HY A 933      30.050   2.578   6.069  0.00  0.00    +0.000 I 
ATOM      8  I3  4HY A 933      24.197   2.293   4.548  0.00  0.00    +0.000 I 
ENDROOT
BRANCH   1   9
ATOM      9  C13 4HY A 933      27.961  -1.402   2.821  0.00  0.00    +0.000 C 
BRANCH   9  10
ATOM     10  C14 4HY A 933      28.434  -2.544   3.725  0.00  0.00    +0.000 C 
ATOM     11  O3  4HY A 933      29.598  -2.963   3.549  0.00  0.00    +0.000 OA
ATOM     12  O4  4HY A 933      27.618  -2.971   4.571  0.00  0.00    +0.000 OA
ENDBRANCH   9  10
ENDBRANCH   1   9
BRANCH   4  13
ATOM     13  O2  4HY A 933      26.896   3.250   5.904  0.00  0.00    +0.000 OA
BRANCH  13  14
ATOM     14  C2  4HY A 933      26.586   4.360   5.175  0.00  0.00    +0.000 A 
ATOM     15  C4  4HY A 933      26.060   5.520   5.743  0.00  0.00    +0.000 A 
ATOM     16  C6  4HY A 933      25.766   6.623   4.945  0.00  0.00    +0.000 A 
ATOM     17  C8  4HY A 933      25.984   6.565   3.572  0.00  0.00    +0.000 A 
ATOM     18  C10 4HY A 933      26.506   5.410   2.999  0.00  0.00    +0.000 A 
ATOM     19  C12 4HY A 933      26.808   4.314   3.802  0.00  0.00    +0.000 A 
ATOM     20  I2  4HY A 933      25.107   8.419   5.801  0.00  0.00    +0.000 I 
ATOM     21  O1  4HY A 933      25.674   7.632   2.787  0.00  0.00    +0.000 OA
ENDBRANCH  13  14
ENDBRANCH   4  13
TORSDOF 4
ENDMDL
MODEL 3
REMARK VINA RESULT:      -4.9      2.155      7.461
REMARK  Name = ligand_pdbs\4HY_A_933 .pdb
REMARK  4 active torsions:
REMARK  status: ('A' for Active; 'I' for Inactive)
REMARK    1  A    between atoms: C1_1  and  C13_13
REMARK    2  A    between atoms: C2_2  and  O2_19
REMARK    3  A    between atoms: C7_7  and  O2_19
REMARK    4  A    between atoms: C13_13  and  C14_14
REMARK                            x       y       z     vdW  Elec       q    Type
REMARK                         _______ _______ _______ _____ _____    ______ ____
ROOT
ATOM      1  C1  4HY A 933      26.735   6.280   5.167  0.00  0.00    +0.000 A 
ATOM      2  C3  4HY A 933      27.634   5.319   5.621  0.00  0.00    +0.000 A 
ATOM      3  C5  4HY A 933      27.249   3.984   5.702  0.00  0.00    +0.000 A 
ATOM      4  C7  4HY A 933      25.963   3.603   5.326  0.00  0.00    +0.000 A 
ATOM      5  C9  4HY A 933      25.062   4.568   4.878  0.00  0.00    +0.000 A 
ATOM      6  C11 4HY A 933      25.447   5.903   4.796  0.00  0.00    +0.000 A 
ATOM      7  I1  4HY A 933      28.614   2.569   6.426  0.00  0.00    +0.000 I 
ATOM      8  I3  4HY A 933      23.078   4.038   4.464  0.00  0.00    +0.000 I 
ENDROOT
BRANCH   1   9
ATOM      9  C13 4HY A 933      27.164   7.746   5.069  0.00  0.00    +0.000 C 
BRANCH   9  10
ATOM     10  C14 4HY A 933      25.929   8.648   4.995  0.00  0.00    +0.000 C 
ATOM     11  O3  4HY A 933      25.159   8.639   5.980  0.00  0.00    +0.000 OA
ATOM     12  O4  4HY A 933      25.784   9.326   3.955  0.00  0.00    +0.000 OA
ENDBRANCH   9  10
ENDBRANCH   1   9
BRANCH   4  13
ATOM     13  O2  4HY A 933      25.543   2.314   5.459  0.00  0.00    +0.000 OA
BRANCH  13  14
ATOM     14  C2  4HY A 933      26.074   1.399   4.597  0.00  0.00    +0.000 A 
ATOM     15  C4  4HY A 933      26.339   0.080   4.959  0.00  0.00    +0.000 A 
ATOM     16  C6  4HY A 933      26.880  -0.809   4.032  0.00  0.00    +0.000 A 
ATOM     17  C8  4HY A 933      27.171  -0.375   2.743  0.00  0.00    +0.000 A 
ATOM     18  C10 4HY A 933      26.911   0.941   2.376  0.00  0.00    +0.000 A 
ATOM     19  C12 4HY A 933      26.361   1.822   3.303  0.00  0.00    +0.000 A 
ATOM     20  I2  4HY A 933      27.153  -2.829   4.518  0.00  0.00    +0.000 I 
ATOM     21  O1  4HY A 933      27.722  -1.234   1.844  0.00  0.00    +0.000 OA
ENDBRANCH  13  14
ENDBRANCH   4  13
TORSDOF 4
ENDMDL
MODEL 4
REMARK VINA RESULT:      -4.9      2.211      7.092
REMARK  Name = ligand_pdbs\4HY_A_933 .pdb
REMARK  4 active torsions:
REMARK  status: ('A' for Active; 'I' for Inactive)
REMARK    1  A    between atoms: C1_1  and  C13_13
REMARK    2  A    between atoms: C2_2  and  O2_19
REMARK    3  A    between atoms: C7_7  and  O2_19
REMARK    4  A    between atoms: C13_13  and  C14_14
REMARK                            x       y       z     vdW  Elec       q    Type
REMARK                         _______ _______ _______ _____ _____    ______ ____
ROOT
ATOM      1  C1  4HY A 933      26.714   6.172   5.233  0.00  0.00    +0.000 A 
ATOM      2  C3  4HY A 933      25.413   5.833   4.872  0.00  0.00    +0.000 A 
ATOM      3  C5  4HY A 933      24.970   4.520   5.003  0.00  0.00    +0.000 A 
ATOM      4  C7  4HY A 933      25.827   3.539   5.498  0.00  0.00    +0.000 A 
ATOM      5  C9  4HY A 933      27.131   3.879   5.852  0.00  0.00    +0.000 A 
ATOM      6  C11 4HY A 933      27.574   5.192   5.723  0.00  0.00    +0.000 A 
ATOM      7  I1  4HY A 933      23.018   4.037   4.414  0.00  0.00    +0.000 I 
ATOM      8  I3  4HY A 933      28.479   2.388   6.443  0.00  0.00    +0.000 I 
ENDROOT
BRANCH   1   9
ATOM      9  C13 4HY A 933      27.196   7.618   5.100  0.00  0.00    +0.000 C 
BRANCH   9  10
ATOM     10  C14 4HY A 933      25.995   8.563   5.004  0.00  0.00    +0.000 C 
ATOM     11  O3  4HY A 933      25.858   9.201   3.939  0.00  0.00    +0.000 OA
ATOM     12  O4  4HY A 933      25.241   8.624   6.000  0.00  0.00    +0.000 OA
ENDBRANCH   9  10
ENDBRANCH   1   9
BRANCH   4  13
ATOM     13  O2  4HY A 933      25.436   2.236   5.571  0.00  0.00    +0.000 OA
BRANCH  13  14
ATOM     14  C2  4HY A 933      25.990   1.373   4.672  0.00  0.00    +0.000 A 
ATOM     15  C4  4HY A 933      26.288   0.046   4.978  0.00  0.00    +0.000 A 
ATOM     16  C6  4HY A 933      26.852  -0.788   4.015  0.00  0.00    +0.000 A 
ATOM     17  C8  4HY A 933      27.134  -0.292   2.746  0.00  0.00    +0.000 A 
ATOM     18  C10 4HY A 933      26.843   1.032   2.436  0.00  0.00    +0.000 A 
ATOM     19  C12 4HY A 933      26.270   1.859   3.398  0.00  0.00    +0.000 A 
ATOM     20  I2  4HY A 933      27.174  -2.821   4.413  0.00  0.00    +0.000 I 
ATOM     21  O1  4HY A 933      27.708  -1.098   1.812  0.00  0.00    +0.000 OA
ENDBRANCH  13  14
ENDBRANCH   4  13
TORSDOF 4
ENDMDL
MODEL 5
REMARK VINA RESULT:      -3.6      1.887      7.369
REMARK  Name = ligand_pdbs\4HY_A_933 .pdb
REMARK  4 active torsions:
REMARK  status: ('A' for Active; 'I' for Inactive)
REMARK    1  A    between atoms: C1_1  and  C13_13
REMARK    2  A    between atoms: C2_2  and  O2_19
REMARK    3  A    between atoms: C7_7  and  O2_19
REMARK    4  A    between atoms: C13_13  and  C14_14
REMARK                            x       y       z     vdW  Elec       q    Type
REMARK                         _______ _______ _______ _____ _____    ______ ____
ROOT
ATOM      1  C1  4HY A 933      27.088   5.086   4.921  0.00  0.00    +0.000 A 
ATOM      2  C3  4HY A 933      27.985   4.227   5.549  0.00  0.00    +0.000 A 
ATOM      3  C5  4HY A 933      27.664   2.883   5.718  0.00  0.00    +0.000 A 
ATOM      4  C7  4HY A 933      26.444   2.392   5.256  0.00  0.00    +0.000 A 
ATOM      5  C9  4HY A 933      25.546   3.256   4.633  0.00  0.00    +0.000 A 
ATOM      6  C11 4HY A 933      25.867   4.599   4.463  0.00  0.00    +0.000 A 
ATOM      7  I1  4HY A 933      29.019   1.625   6.703  0.00  0.00    +0.000 I 
ATOM      8  I3  4HY A 933      23.645   2.570   4.080  0.00  0.00    +0.000 I 
ENDROOT
BRANCH   1   9
ATOM      9  C13 4HY A 933      27.448   6.561   4.726  0.00  0.00    +0.000 C 
BRANCH   9  10
ATOM     10  C14 4HY A 933      26.181   7.419   4.775  0.00  0.00    +0.000 C 
ATOM     11  O3  4HY A 933      25.854   7.886   5.887  0.00  0.00    +0.000 OA
ATOM     12  O4  4HY A 933      25.568   7.588   3.699  0.00  0.00    +0.000 OA
ENDBRANCH   9  10
ENDBRANCH   1   9
BRANCH   4  13
ATOM     13  O2  4HY A 933      26.081   1.096   5.469  0.00  0.00    +0.000 OA
BRANCH  13  14
ATOM     14  C2  4HY A 933      26.880   0.133   4.926  0.00  0.00    +0.000 A 
ATOM     15  C4  4HY A 933      27.854   0.406   3.967  0.00  0.00    +0.000 A 
ATOM     16  C6  4HY A 933      28.641  -0.621   3.450  0.00  0.00    +0.000 A 
ATOM     17  C8  4HY A 933      28.444  -1.930   3.881  0.00  0.00    +0.000 A 
ATOM     18  C10 4HY A 933      27.471  -2.209   4.836  0.00  0.00    +0.000 A 
ATOM     19  C12 4HY A 933      26.695  -1.178   5.356  0.00  0.00    +0.000 A 
ATOM     20  I2  4HY A 933      30.202  -0.207   2.115  0.00  0.00    +0.000 I 
ATOM     21  O1  4HY A 933      29.193  -2.938   3.360  0.00  0.00    +0.000 OA
ENDBRANCH  13  14
ENDBRANCH   4  13
TORSDOF 4
ENDMDL
MODEL 6
REMARK VINA RESULT:      -3.5      1.525      1.809
REMARK  Name = ligand_pdbs\4HY_A_933 .pdb
REMARK  4 active torsions:
REMARK  status: ('A' for Active; 'I' for Inactive)
REMARK    1  A    between atoms: C1_1  and  C13_13
REMARK    2  A    between atoms: C2_2  and  O2_19
REMARK    3  A    between atoms: C7_7  and  O2_19
REMARK    4  A    between atoms: C13_13  and  C14_14
REMARK                            x       y       z     vdW  Elec       q    Type
REMARK                         _______ _______ _______ _____ _____    ______ ____
ROOT
ATOM      1  C1  4HY A 933      28.764   0.273   3.448  0.00  0.00    +0.000 A 
ATOM      2  C3  4HY A 933      27.406   0.236   3.143  0.00  0.00    +0.000 A 
ATOM      3  C5  4HY A 933      26.496   0.950   3.916  0.00  0.00    +0.000 A 
ATOM      4  C7  4HY A 933      26.940   1.709   4.998  0.00  0.00    +0.000 A 
ATOM      5  C9  4HY A 933      28.299   1.739   5.306  0.00  0.00    +0.000 A 
ATOM      6  C11 4HY A 933      29.209   1.025   4.532  0.00  0.00    +0.000 A 
ATOM      7  I1  4HY A 933      24.455   0.843   3.453  0.00  0.00    +0.000 I 
ATOM      8  I3  4HY A 933      28.963   2.739   7.022  0.00  0.00    +0.000 I 
ENDROOT
BRANCH   1   9
ATOM      9  C13 4HY A 933      29.764  -0.504   2.590  0.00  0.00    +0.000 C 
BRANCH   9  10
ATOM     10  C14 4HY A 933      30.071  -1.857   3.239  0.00  0.00    +0.000 C 
ATOM     11  O3  4HY A 933      29.105  -2.626   3.433  0.00  0.00    +0.000 OA
ATOM     12  O4  4HY A 933      31.265  -2.090   3.527  0.00  0.00    +0.000 OA
ENDBRANCH   9  10
ENDBRANCH   1   9
BRANCH   4  13
ATOM     13  O2  4HY A 933      26.061   2.362   5.808  0.00  0.00    +0.000 OA
BRANCH  13  14
ATOM     14  C2  4HY A 933      25.632   3.588   5.393  0.00  0.00    +0.000 A 
ATOM     15  C4  4HY A 933      26.425   4.732   5.458  0.00  0.00    +0.000 A 
ATOM     16  C6  4HY A 933      25.931   5.958   5.015  0.00  0.00    +0.000 A 
ATOM     17  C8  4HY A 933      24.633   6.045   4.520  0.00  0.00    +0.000 A 
ATOM     18  C10 4HY A 933      23.836   4.907   4.455  0.00  0.00    +0.000 A 
ATOM     19  C12 4HY A 933      24.338   3.683   4.889  0.00  0.00    +0.000 A 
ATOM     20  I2  4HY A 933      27.157   7.656   4.975  0.00  0.00    +0.000 I 
ATOM     21  O1  4HY A 933      24.140   7.244   4.111  0.00  0.00    +0.000 OA
ENDBRANCH  13  14
ENDBRANCH   4  13
TORSDOF 4
ENDMDL
MODEL 7
REMARK VINA RESULT:      -3.5      2.067      6.947
REMARK  Name = ligand_pdbs\4HY_A_933 .pdb
REMARK  4 active torsions:
REMARK  status: ('A' for Active; 'I' for Inactive)
REMARK    1  A    between atoms: C1_1  and  C13_13
REMARK    2  A    between atoms: C2_2  and  O2_19
REMARK    3  A    between atoms: C7_7  and  O2_19
REMARK    4  A    between atoms: C13_13  and  C14_14
REMARK                            x       y       z     vdW  Elec       q    Type
REMARK                         _______ _______ _______ _____ _____    ______ ____
ROOT
ATOM      1  C1  4HY A 933      25.624   5.293   4.135  0.00  0.00    +0.000 A 
ATOM      2  C3  4HY A 933      25.621   4.285   3.174  0.00  0.00    +0.000 A 
ATOM      3  C5  4HY A 933      25.562   2.950   3.561  0.00  0.00    +0.000 A 
ATOM      4  C7  4HY A 933      25.501   2.615   4.912  0.00  0.00    +0.000 A 
ATOM      5  C9  4HY A 933      25.509   3.625   5.873  0.00  0.00    +0.000 A 
ATOM      6  C11 4HY A 933      25.568   4.960   5.486  0.00  0.00    +0.000 A 
ATOM      7  I1  4HY A 933      25.599   1.457   2.091  0.00  0.00    +0.000 I 
ATOM      8  I3  4HY A 933      25.583   3.135   7.908  0.00  0.00    +0.000 I 
ENDROOT
BRANCH   1   9
ATOM      9  C13 4HY A 933      25.678   6.761   3.707  0.00  0.00    +0.000 C 
BRANCH   9  10
ATOM     10  C14 4HY A 933      26.247   7.616   4.843  0.00  0.00    +0.000 C 
ATOM     11  O3  4HY A 933      27.450   7.447   5.134  0.00  0.00    +0.000 OA
ATOM     12  O4  4HY A 933      25.463   8.420   5.394  0.00  0.00    +0.000 OA
ENDBRANCH   9  10
ENDBRANCH   1   9
BRANCH   4  13
ATOM     13  O2  4HY A 933      25.508   1.314   5.316  0.00  0.00    +0.000 OA
BRANCH  13  14
ATOM     14  C2  4HY A 933      26.662   0.614   5.122  0.00  0.00    +0.000 A 
ATOM     15  C4  4HY A 933      27.891   1.014   5.646  0.00  0.00    +0.000 A 
ATOM     16  C6  4HY A 933      29.035   0.254   5.414  0.00  0.00    +0.000 A 
ATOM     17  C8  4HY A 933      28.957  -0.903   4.644  0.00  0.00    +0.000 A 
ATOM     18  C10 4HY A 933      27.735  -1.305   4.116  0.00  0.00    +0.000 A 
ATOM     19  C12 4HY A 933      26.592  -0.548   4.359  0.00  0.00    +0.000 A 
ATOM     20  I2  4HY A 933      30.860   0.764   6.311  0.00  0.00    +0.000 I 
ATOM     21  O1  4HY A 933      30.078  -1.633   4.396  0.00  0.00    +0.000 OA
ENDBRANCH  13  14
ENDBRANCH   4  13
TORSDOF 4
ENDMDL
MODEL 8
REMARK VINA RESULT:      -3.4      1.928      7.019
REMARK  Name = ligand_pdbs\4HY_A_933 .pdb
REMARK  4 active torsions:
REMARK  status: ('A' for Active; 'I' for Inactive)
REMARK    1  A    between atoms: C1_1  and  C13_13
REMARK    2  A    between atoms: C2_2  and  O2_19
REMARK    3  A    between atoms: C7_7  and  O2_19
REMARK    4  A    between atoms: C13_13  and  C14_14
REMARK                            x       y       z     vdW  Elec       q    Type
REMARK                         _______ _______ _______ _____ _____    ______ ____
ROOT
ATOM      1  C1  4HY A 933      26.412   5.213   4.156  0.00  0.00    +0.000 A 
ATOM      2  C3  4HY A 933      25.478   4.206   3.932  0.00  0.00    +0.000 A 
ATOM      3  C5  4HY A 933      25.608   2.977   4.572  0.00  0.00    +0.000 A 
ATOM      4  C7  4HY A 933      26.672   2.750   5.443  0.00  0.00    +0.000 A 
ATOM      5  C9  4HY A 933      27.609   3.758   5.661  0.00  0.00    +0.000 A 
ATOM      6  C11 4HY A 933      27.479   4.987   5.022  0.00  0.00    +0.000 A 
ATOM      7  I1  4HY A 933      24.205   1.469   4.183  0.00  0.00    +0.000 I 
ATOM      8  I3  4HY A 933      29.301   3.379   6.837  0.00  0.00    +0.000 I 
ENDROOT
BRANCH   1   9
ATOM      9  C13 4HY A 933      26.262   6.568   3.460  0.00  0.00    +0.000 C 
BRANCH   9  10
ATOM     10  C14 4HY A 933      25.630   7.581   4.418  0.00  0.00    +0.000 C 
ATOM     11  O3  4HY A 933      24.601   7.222   5.028  0.00  0.00    +0.000 OA
ATOM     12  O4  4HY A 933      26.193   8.693   4.518  0.00  0.00    +0.000 OA
ENDBRANCH   9  10
ENDBRANCH   1   9
BRANCH   4  13
ATOM     13  O2  4HY A 933      26.855   1.534   6.028  0.00  0.00    +0.000 OA
BRANCH  13  14
ATOM     14  C2  4HY A 933      27.277   0.518   5.223  0.00  0.00    +0.000 A 
ATOM     15  C4  4HY A 933      28.299   0.665   4.286  0.00  0.00    +0.000 A 
ATOM     16  C6  4HY A 933      28.687  -0.413   3.493  0.00  0.00    +0.000 A 
ATOM     17  C8  4HY A 933      28.043  -1.639   3.624  0.00  0.00    +0.000 A 
ATOM     18  C10 4HY A 933      27.021  -1.791   4.555  0.00  0.00    +0.000 A 
ATOM     19  C12 4HY A 933      26.643  -0.715   5.352  0.00  0.00    +0.000 A 
ATOM     20  I2  4HY A 933      30.314  -0.247   2.182  0.00  0.00    +0.000 I 
ATOM     21  O1  4HY A 933      28.404  -2.685   2.834  0.00  0.00    +0.000 OA
ENDBRANCH  13  14
ENDBRANCH   4  13
TORSDOF 4
ENDMDL
MODEL 9
REMARK VINA RESULT:      -2.4      2.619      3.348
REMARK  Name = ligand_pdbs\4HY_A_933 .pdb
REMARK  4 active torsions:
REMARK  status: ('A' for Active; 'I' for Inactive)
REMARK    1  A    between atoms: C1_1  and  C13_13
REMARK    2  A    between atoms: C2_2  and  O2_19
REMARK    3  A    between atoms: C7_7  and  O2_19
REMARK    4  A    between atoms: C13_13  and  C14_14
REMARK                            x       y       z     vdW  Elec       q    Type
REMARK                         _______ _______ _______ _____ _____    ______ ____
ROOT
ATOM      1  C1  4HY A 933      28.538   0.661   5.191  0.00  0.00    +0.000 A 
ATOM      2  C3  4HY A 933      27.937   1.375   6.224  0.00  0.00    +0.000 A 
ATOM      3  C5  4HY A 933      26.659   1.901   6.059  0.00  0.00    +0.000 A 
ATOM      4  C7  4HY A 933      25.974   1.712   4.860  0.00  0.00    +0.000 A 
ATOM      5  C9  4HY A 933      26.581   1.002   3.825  0.00  0.00    +0.000 A 
ATOM      6  C11 4HY A 933      27.858   0.476   3.990  0.00  0.00    +0.000 A 
ATOM      7  I1  4HY A 933      25.798   3.003   7.619  0.00  0.00    +0.000 I 
ATOM      8  I3  4HY A 933      25.634   0.850   1.963  0.00  0.00    +0.000 I 
ENDROOT
BRANCH   1   9
ATOM      9  C13 4HY A 933      29.939   0.073   5.378  0.00  0.00    +0.000 C 
BRANCH   9  10
ATOM     10  C14 4HY A 933      30.780   0.998   6.262  0.00  0.00    +0.000 C 
ATOM     11  O3  4HY A 933      31.005   2.148   5.829  0.00  0.00    +0.000 OA
ATOM     12  O4  4HY A 933      31.179   0.532   7.352  0.00  0.00    +0.000 OA
ENDBRANCH   9  10
ENDBRANCH   1   9
BRANCH   4  13
ATOM     13  O2  4HY A 933      24.751   2.274   4.652  0.00  0.00    +0.000 OA
BRANCH  13  14
ATOM     14  C2  4HY A 933      24.690   3.636   4.644  0.00  0.00    +0.000 A 
ATOM     15  C4  4HY A 933      25.803   4.448   4.857  0.00  0.00    +0.000 A 
ATOM     16  C6  4HY A 933      25.677   5.835   4.835  0.00  0.00    +0.000 A 
ATOM     17  C8  4HY A 933      24.432   6.416   4.614  0.00  0.00    +0.000 A 
ATOM     18  C10 4HY A 933      23.316   5.611   4.404  0.00  0.00    +0.000 A 
ATOM     19  C12 4HY A 933      23.449   4.226   4.417  0.00  0.00    +0.000 A 
ATOM     20  I2  4HY A 933      27.363   7.067   5.012  0.00  0.00    +0.000 I 
ATOM     21  O1  4HY A 933      24.301   7.770   4.617  0.00  0.00    +0.000 OA
ENDBRANCH  13  14
ENDBRANCH   4  13
TORSDOF 4
ENDMDL
