MODEL 1
REMARK VINA RESULT:      -3.4      0.000      0.000
REMARK  Name = ligand_pdbs\DTT_A_1003 .pdb
REMARK  3 active torsions:
REMARK  status: ('A' for Active; 'I' for Inactive)
REMARK    1  A    between atoms: C1_2  and  C2_3
REMARK    2  A    between atoms: C2_3  and  C3_5
REMARK    3  A    between atoms: C3_5  and  C4_7
REMARK                            x       y       z     vdW  Elec       q    Type
REMARK                         _______ _______ _______ _____ _____    ______ ____
ROOT
ATOM      1  C2  DTT A1003      24.424   5.300   5.016  0.00  0.00    +0.000 C 
ATOM      2  O2  DTT A1003      23.506   4.865   4.617  0.00  0.00    +0.000 OA
ENDROOT
BRANCH   1   4
ATOM      3  S1  DTT A1003      26.005   7.363   5.056  0.00  0.00    +0.000 S 
ATOM      4  C1  DTT A1003      24.576   6.606   4.265  0.00  0.00    +0.000 C 
ENDBRANCH   1   4
BRANCH   1   5
ATOM      5  C3  DTT A1003      25.599   4.455   5.113  0.00  0.00    +0.000 C 
ATOM      6  O3  DTT A1003      25.575   3.607   4.038  0.00  0.00    +0.000 OA
BRANCH   5   7
ATOM      7  C4  DTT A1003      25.751   3.560   6.248  0.00  0.00    +0.000 C 
ATOM      8  S4  DTT A1003      27.463   3.650   6.108  0.00  0.00    +0.000 S 
ENDBRANCH   5   7
ENDBRANCH   1   5
TORSDOF 3
ENDMDL
MODEL 2
REMARK VINA RESULT:      -3.4      0.197      3.208
REMARK  Name = ligand_pdbs\DTT_A_1003 .pdb
REMARK  3 active torsions:
REMARK  status: ('A' for Active; 'I' for Inactive)
REMARK    1  A    between atoms: C1_2  and  C2_3
REMARK    2  A    between atoms: C2_3  and  C3_5
REMARK    3  A    between atoms: C3_5  and  C4_7
REMARK                            x       y       z     vdW  Elec       q    Type
REMARK                         _______ _______ _______ _____ _____    ______ ____
ROOT
ATOM      1  C2  DTT A1003      25.632   4.507   4.918  0.00  0.00    +0.000 C 
ATOM      2  O2  DTT A1003      25.612   3.795   4.091  0.00  0.00    +0.000 OA
ENDROOT
BRANCH   1   4
ATOM      3  S1  DTT A1003      27.615   3.482   6.250  0.00  0.00    +0.000 S 
ATOM      4  C1  DTT A1003      25.826   3.645   6.148  0.00  0.00    +0.000 C 
ENDBRANCH   1   4
BRANCH   1   5
ATOM      5  C3  DTT A1003      24.593   5.518   4.980  0.00  0.00    +0.000 C 
ATOM      6  O3  DTT A1003      23.420   4.912   4.616  0.00  0.00    +0.000 OA
BRANCH   5   7
ATOM      7  C4  DTT A1003      24.663   6.676   4.105  0.00  0.00    +0.000 C 
ATOM      8  S4  DTT A1003      25.922   7.344   5.065  0.00  0.00    +0.000 S 
ENDBRANCH   5   7
ENDBRANCH   1   5
TORSDOF 3
ENDMDL
MODEL 3
REMARK VINA RESULT:      -3.3      2.155      3.036
REMARK  Name = ligand_pdbs\DTT_A_1003 .pdb
REMARK  3 active torsions:
REMARK  status: ('A' for Active; 'I' for Inactive)
REMARK    1  A    between atoms: C1_2  and  C2_3
REMARK    2  A    between atoms: C2_3  and  C3_5
REMARK    3  A    between atoms: C3_5  and  C4_7
REMARK                            x       y       z     vdW  Elec       q    Type
REMARK                         _______ _______ _______ _____ _____    ______ ____
ROOT
ATOM      1  C2  DTT A1003      26.064   4.108   4.982  0.00  0.00    +0.000 C 
ATOM      2  O2  DTT A1003      26.064   3.213   4.357  0.00  0.00    +0.000 OA
ENDROOT
BRANCH   1   4
ATOM      3  S1  DTT A1003      23.531   4.558   4.606  0.00  0.00    +0.000 S 
ATOM      4  C1  DTT A1003      24.780   4.005   5.779  0.00  0.00    +0.000 C 
ENDBRANCH   1   4
BRANCH   1   5
ATOM      5  C3  DTT A1003      26.349   5.384   4.355  0.00  0.00    +0.000 C 
ATOM      6  O3  DTT A1003      27.002   5.119   3.180  0.00  0.00    +0.000 OA
BRANCH   5   7
ATOM      7  C4  DTT A1003      27.224   6.334   5.021  0.00  0.00    +0.000 C 
ATOM      8  S4  DTT A1003      25.994   7.533   4.958  0.00  0.00    +0.000 S 
ENDBRANCH   5   7
ENDBRANCH   1   5
TORSDOF 3
ENDMDL
MODEL 4
REMARK VINA RESULT:      -3.3      2.634      2.714
REMARK  Name = ligand_pdbs\DTT_A_1003 .pdb
REMARK  3 active torsions:
REMARK  status: ('A' for Active; 'I' for Inactive)
REMARK    1  A    between atoms: C1_2  and  C2_3
REMARK    2  A    between atoms: C2_3  and  C3_5
REMARK    3  A    between atoms: C3_5  and  C4_7
REMARK                            x       y       z     vdW  Elec       q    Type
REMARK                         _______ _______ _______ _____ _____    ______ ____
ROOT
ATOM      1  C2  DTT A1003      27.131   5.458   4.685  0.00  0.00    +0.000 C 
ATOM      2  O2  DTT A1003      27.941   5.289   3.973  0.00  0.00    +0.000 OA
ENDROOT
BRANCH   1   4
ATOM      3  S1  DTT A1003      25.780   7.651   5.037  0.00  0.00    +0.000 S 
ATOM      4  C1  DTT A1003      27.384   6.854   5.215  0.00  0.00    +0.000 C 
ENDBRANCH   1   4
BRANCH   1   5
ATOM      5  C3  DTT A1003      26.850   4.424   5.664  0.00  0.00    +0.000 C 
ATOM      6  O3  DTT A1003      28.057   3.965   6.122  0.00  0.00    +0.000 OA
BRANCH   5   7
ATOM      7  C4  DTT A1003      26.159   3.213   5.254  0.00  0.00    +0.000 C 
ATOM      8  S4  DTT A1003      24.640   3.974   5.514  0.00  0.00    +0.000 S 
ENDBRANCH   5   7
ENDBRANCH   1   5
TORSDOF 3
ENDMDL
MODEL 5
REMARK VINA RESULT:      -3.3      2.418      2.657
REMARK  Name = ligand_pdbs\DTT_A_1003 .pdb
REMARK  3 active torsions:
REMARK  status: ('A' for Active; 'I' for Inactive)
REMARK    1  A    between atoms: C1_2  and  C2_3
REMARK    2  A    between atoms: C2_3  and  C3_5
REMARK    3  A    between atoms: C3_5  and  C4_7
REMARK                            x       y       z     vdW  Elec       q    Type
REMARK                         _______ _______ _______ _____ _____    ______ ____
ROOT
ATOM      1  C2  DTT A1003      26.855   5.971   4.636  0.00  0.00    +0.000 C 
ATOM      2  O2  DTT A1003      27.623   6.571   5.128  0.00  0.00    +0.000 OA
ENDROOT
BRANCH   1   4
ATOM      3  S1  DTT A1003      24.317   5.407   4.675  0.00  0.00    +0.000 S 
ATOM      4  C1  DTT A1003      25.558   6.676   4.974  0.00  0.00    +0.000 C 
ENDBRANCH   1   4
BRANCH   1   5
ATOM      5  C3  DTT A1003      26.887   4.532   4.814  0.00  0.00    +0.000 C 
ATOM      6  O3  DTT A1003      27.557   4.286   5.983  0.00  0.00    +0.000 OA
BRANCH   5   7
ATOM      7  C4  DTT A1003      27.581   3.702   3.843  0.00  0.00    +0.000 C 
ATOM      8  S4  DTT A1003      28.412   2.890   5.110  0.00  0.00    +0.000 S 
ENDBRANCH   5   7
ENDBRANCH   1   5
TORSDOF 3
ENDMDL
MODEL 6
REMARK VINA RESULT:      -3.3      2.180      3.962
REMARK  Name = ligand_pdbs\DTT_A_1003 .pdb
REMARK  3 active torsions:
REMARK  status: ('A' for Active; 'I' for Inactive)
REMARK    1  A    between atoms: C1_2  and  C2_3
REMARK    2  A    between atoms: C2_3  and  C3_5
REMARK    3  A    between atoms: C3_5  and  C4_7
REMARK                            x       y       z     vdW  Elec       q    Type
REMARK                         _______ _______ _______ _____ _____    ______ ____
ROOT
ATOM      1  C2  DTT A1003      27.780   4.608   4.563  0.00  0.00    +0.000 C 
ATOM      2  O2  DTT A1003      27.484   3.768   3.931  0.00  0.00    +0.000 OA
ENDROOT
BRANCH   1   4
ATOM      3  S1  DTT A1003      27.470   2.280   5.680  0.00  0.00    +0.000 S 
ATOM      4  C1  DTT A1003      27.932   4.000   5.942  0.00  0.00    +0.000 C 
ENDBRANCH   1   4
BRANCH   1   5
ATOM      5  C3  DTT A1003      27.022   5.841   4.468  0.00  0.00    +0.000 C 
ATOM      6  O3  DTT A1003      27.662   6.767   5.249  0.00  0.00    +0.000 OA
BRANCH   5   7
ATOM      7  C4  DTT A1003      25.650   5.882   4.947  0.00  0.00    +0.000 C 
ATOM      8  S4  DTT A1003      25.733   7.594   5.077  0.00  0.00    +0.000 S 
ENDBRANCH   5   7
ENDBRANCH   1   5
TORSDOF 3
ENDMDL
MODEL 7
REMARK VINA RESULT:      -3.3      2.076      3.646
REMARK  Name = ligand_pdbs\DTT_A_1003 .pdb
REMARK  3 active torsions:
REMARK  status: ('A' for Active; 'I' for Inactive)
REMARK    1  A    between atoms: C1_2  and  C2_3
REMARK    2  A    between atoms: C2_3  and  C3_5
REMARK    3  A    between atoms: C3_5  and  C4_7
REMARK                            x       y       z     vdW  Elec       q    Type
REMARK                         _______ _______ _______ _____ _____    ______ ____
ROOT
ATOM      1  C2  DTT A1003      27.468   4.871   4.718  0.00  0.00    +0.000 C 
ATOM      2  O2  DTT A1003      27.798   5.287   3.765  0.00  0.00    +0.000 OA
ENDROOT
BRANCH   1   4
ATOM      3  S1  DTT A1003      28.863   2.898   5.679  0.00  0.00    +0.000 S 
ATOM      4  C1  DTT A1003      27.565   3.372   4.525  0.00  0.00    +0.000 C 
ENDBRANCH   1   4
BRANCH   1   5
ATOM      5  C3  DTT A1003      26.242   5.380   5.303  0.00  0.00    +0.000 C 
ATOM      6  O3  DTT A1003      25.497   4.296   5.685  0.00  0.00    +0.000 OA
BRANCH   5   7
ATOM      7  C4  DTT A1003      25.322   6.153   4.485  0.00  0.00    +0.000 C 
ATOM      8  S4  DTT A1003      24.087   4.986   4.748  0.00  0.00    +0.000 S 
ENDBRANCH   5   7
ENDBRANCH   1   5
TORSDOF 3
ENDMDL
MODEL 8
REMARK VINA RESULT:      -3.2      1.860      3.660
REMARK  Name = ligand_pdbs\DTT_A_1003 .pdb
REMARK  3 active torsions:
REMARK  status: ('A' for Active; 'I' for Inactive)
REMARK    1  A    between atoms: C1_2  and  C2_3
REMARK    2  A    between atoms: C2_3  and  C3_5
REMARK    3  A    between atoms: C3_5  and  C4_7
REMARK                            x       y       z     vdW  Elec       q    Type
REMARK                         _______ _______ _______ _____ _____    ______ ____
ROOT
ATOM      1  C2  DTT A1003      26.526   4.044   5.584  0.00  0.00    +0.000 C 
ATOM      2  O2  DTT A1003      25.866   3.874   6.437  0.00  0.00    +0.000 OA
ENDROOT
BRANCH   1   4
ATOM      3  S1  DTT A1003      28.009   1.952   6.014  0.00  0.00    +0.000 S 
ATOM      4  C1  DTT A1003      27.911   3.746   6.119  0.00  0.00    +0.000 C 
ENDBRANCH   1   4
BRANCH   1   5
ATOM      5  C3  DTT A1003      26.363   5.268   4.822  0.00  0.00    +0.000 C 
ATOM      6  O3  DTT A1003      26.534   4.945   3.502  0.00  0.00    +0.000 OA
BRANCH   5   7
ATOM      7  C4  DTT A1003      27.289   6.370   5.025  0.00  0.00    +0.000 C 
ATOM      8  S4  DTT A1003      25.978   7.480   5.077  0.00  0.00    +0.000 S 
ENDBRANCH   5   7
ENDBRANCH   1   5
TORSDOF 3
ENDMDL
MODEL 9
REMARK VINA RESULT:      -3.2      4.715      5.494
REMARK  Name = ligand_pdbs\DTT_A_1003 .pdb
REMARK  3 active torsions:
REMARK  status: ('A' for Active; 'I' for Inactive)
REMARK    1  A    between atoms: C1_2  and  C2_3
REMARK    2  A    between atoms: C2_3  and  C3_5
REMARK    3  A    between atoms: C3_5  and  C4_7
REMARK                            x       y       z     vdW  Elec       q    Type
REMARK                         _______ _______ _______ _____ _____    ______ ____
ROOT
ATOM      1  C2  DTT A1003      28.843   1.663   5.192  0.00  0.00    +0.000 C 
ATOM      2  O2  DTT A1003      29.782   1.654   4.636  0.00  0.00    +0.000 OA
ENDROOT
BRANCH   1   4
ATOM      3  S1  DTT A1003      27.170   3.280   6.352  0.00  0.00    +0.000 S 
ATOM      4  C1  DTT A1003      28.904   2.937   6.008  0.00  0.00    +0.000 C 
ENDBRANCH   1   4
BRANCH   1   5
ATOM      5  C3  DTT A1003      28.446   0.454   5.889  0.00  0.00    +0.000 C 
ATOM      6  O3  DTT A1003      29.453   0.147   6.766  0.00  0.00    +0.000 OA
BRANCH   5   7
ATOM      7  C4  DTT A1003      28.258  -0.779   5.143  0.00  0.00    +0.000 C 
ATOM      8  S4  DTT A1003      26.608  -0.380   4.872  0.00  0.00    +0.000 S 
ENDBRANCH   5   7
ENDBRANCH   1   5
TORSDOF 3
ENDMDL
