REMARK  Name = ligand_pdbs\DTT_A_1003 .pdb
REMARK  3 active torsions:
REMARK  status: ('A' for Active; 'I' for Inactive)
REMARK    1  A    between atoms: C1_2  and  C2_3
REMARK    2  A    between atoms: C2_3  and  C3_5
REMARK    3  A    between atoms: C3_5  and  C4_7
REMARK                            x       y       z     vdW  Elec       q    Type
REMARK                         _______ _______ _______ _____ _____    ______ ____
ROOT
ATOM      1  C2  DTT A1003      28.897  16.715  -4.647  0.00  0.00    +0.000 C 
ATOM      2  O2  DTT A1003      28.350  17.312  -5.379  0.00  0.00    +0.000 OA
ENDROOT
BRANCH   1   4
ATOM      3  S1  DTT A1003      29.143  16.111  -2.130  0.00  0.00    +0.000 S 
ATOM      4  C1  DTT A1003      28.502  17.309  -3.311  0.00  0.00    +0.000 C 
ENDBRANCH   1   4
BRANCH   1   5
ATOM      5  C3  DTT A1003      30.311  16.480  -4.870  0.00  0.00    +0.000 C 
ATOM      6  O3  DTT A1003      30.979  16.988  -3.787  0.00  0.00    +0.000 OA
BRANCH   5   7
ATOM      7  C4  DTT A1003      30.975  17.105  -6.002  0.00  0.00    +0.000 C 
ATOM      8  S4  DTT A1003      32.173  15.872  -5.998  0.00  0.00    +0.000 S 
ENDBRANCH   5   7
ENDBRANCH   1   5
TORSDOF 3
