REMARK  Name = ligand_pdbs\GOL_A_1002 .pdb
REMARK  1 active torsions:
REMARK  status: ('A' for Active; 'I' for Inactive)
REMARK    1  A    between atoms: C1_1  and  C2_3
REMARK                            x       y       z     vdW  Elec       q    Type
REMARK                         _______ _______ _______ _____ _____    ______ ____
ROOT
ATOM      1  C2  GOL A1002      24.093   1.140  36.562  0.00  0.00    +0.000 C 
ATOM      2  O2  GOL A1002      24.231   1.681  35.343  0.00  0.00    +0.000 OA
ATOM      3  C3  GOL A1002      24.459  -0.179  36.961  0.00  0.00    +0.000 C 
ATOM      4  O3  GOL A1002      24.667  -1.443  37.850  0.00  0.00    +0.000 OA
ENDROOT
BRANCH   1   5
ATOM      5  C1  GOL A1002      23.525   1.935  37.559  0.00  0.00    +0.000 C 
ATOM      6  O1  GOL A1002      22.752   3.325  37.322  0.00  0.00    +0.000 OA
ENDBRANCH   1   5
TORSDOF 1
