REMARK  Name = ligand_pdbs\ZK5_A_1918 .pdb
REMARK  2 active torsions:
REMARK  status: ('A' for Active; 'I' for Inactive)
REMARK    1  A    between atoms: C17_17  and  C20_20
REMARK    2  A    between atoms: C20_20  and  C21_21
REMARK                            x       y       z     vdW  Elec       q    Type
REMARK                         _______ _______ _______ _____ _____    ______ ____
ROOT
ATOM      1  C2  ZK5 A1918       1.372  26.706   5.274  0.00  0.00    +0.000 C 
ATOM      2  C3  ZK5 A1918       2.778  26.729   4.745  0.00  0.00    +0.000 C 
ATOM      3  C4  ZK5 A1918       3.519  28.007   4.813  0.00  0.00    +0.000 C 
ATOM      4  C5  ZK5 A1918       2.980  29.162   5.193  0.00  0.00    +0.000 C 
ATOM      5  C6  ZK5 A1918       3.823  30.399   5.265  0.00  0.00    +0.000 C 
ATOM      6  C7  ZK5 A1918       3.203  31.534   4.413  0.00  0.00    +0.000 C 
ATOM      7  C1  ZK5 A1918       0.690  28.053   5.141  0.00  0.00    +0.000 C 
ATOM      8  C8  ZK5 A1918       1.767  31.817   4.852  0.00  0.00    +0.000 C 
ATOM      9  C9  ZK5 A1918       0.908  30.529   4.844  0.00  0.00    +0.000 C 
ATOM     10  C10 ZK5 A1918       1.509  29.308   5.575  0.00  0.00    +0.000 C 
ATOM     11  C11 ZK5 A1918      -0.605  30.721   5.074  0.00  0.00    +0.000 C 
ATOM     12  C12 ZK5 A1918      -1.212  31.949   4.354  0.00  0.00    +0.000 C 
ATOM     13  C13 ZK5 A1918      -0.346  33.220   4.454  0.00  0.00    +0.000 C 
ATOM     14  C14 ZK5 A1918       1.076  32.852   3.986  0.00  0.00    +0.000 C 
ATOM     15  C15 ZK5 A1918       1.811  34.200   3.838  0.00  0.00    +0.000 C 
ATOM     16  C16 ZK5 A1918       0.673  35.168   3.454  0.00  0.00    +0.000 C 
ATOM     17  C17 ZK5 A1918      -0.650  34.351   3.446  0.00  0.00    +0.000 C 
ATOM     18  C18 ZK5 A1918      -0.365  33.730   5.916  0.00  0.00    +0.000 C 
ATOM     19  C19 ZK5 A1918       1.410  29.472   7.113  0.00  0.00    +0.000 C 
ATOM     20  F9  ZK5 A1918       0.929  30.197   3.433  0.00  0.00    +0.000 F 
ATOM     21  O1  ZK5 A1918       3.299  25.724   4.268  0.00  0.00    +0.000 OA
ATOM     22  O2  ZK5 A1918      -0.842  30.765   6.457  0.00  0.00    +0.000 OA
ATOM     23  O3  ZK5 A1918      -0.923  33.755   2.186  0.00  0.00    +0.000 OA
ENDROOT
BRANCH  17  24
ATOM     24  C20 ZK5 A1918      -1.879  35.199   3.818  0.00  0.00    +0.000 C 
ATOM     25  O4  ZK5 A1918      -1.812  36.059   4.647  0.00  0.00    +0.000 OA
BRANCH  24  26
ATOM     26  C21 ZK5 A1918      -3.165  34.913   3.098  0.00  0.00    +0.000 C 
ATOM     27  O5  ZK5 A1918      -4.102  35.981   3.248  0.00  0.00    +0.000 OA
ENDBRANCH  24  26
ENDBRANCH  17  24
TORSDOF 2
