REMARK  Name = ligand_pdbs\056.pdb
REMARK  5 active torsions:
REMARK  status: ('A' for Active; 'I' for Inactive)
REMARK    1  A    between atoms: C16_2  and  C12_4
REMARK    2  A    between atoms: C10_6  and  C9_12
REMARK    3  A    between atoms: S8_10  and  C9_12
REMARK    4  A    between atoms: S8_10  and  C7_16
REMARK    5  A    between atoms: C2_15  and  C7_16
REMARK                            x       y       z     vdW  Elec       q    Type
REMARK                         _______ _______ _______ _____ _____    ______ ____
ROOT
ATOM      1  S8  056 A1922      19.474 -14.171 -31.655  0.00  0.00    +0.000 S 
ENDROOT
BRANCH   1   2
ATOM      2  C9  056 A1922      19.599 -15.852 -31.114  0.00  0.00    +0.000 C 
BRANCH   2   5
ATOM      3  C12 056 A1922      17.252 -16.863 -28.285  0.00  0.00    +0.000 A 
ATOM      4  C11 056 A1922      17.954 -16.946 -29.488  0.00  0.00    +0.000 A 
ATOM      5  C10 056 A1922      18.789 -15.899 -29.843  0.00  0.00    +0.000 A 
ATOM      6  C15 056 A1922      18.874 -14.805 -29.019  0.00  0.00    +0.000 A 
ATOM      7  C14 056 A1922      18.170 -14.735 -27.834  0.00  0.00    +0.000 A 
ATOM      8  C13 056 A1922      17.346 -15.765 -27.464  0.00  0.00    +0.000 A 
BRANCH   3  10
ATOM      9  O17 056 A1922      15.272 -17.517 -27.295  0.00  0.00    +0.000 OA
ATOM     10  C16 056 A1922      16.330 -17.924 -27.808  0.00  0.00    +0.000 C 
ATOM     11  O18 056 A1922      16.626 -19.137 -27.914  0.00  0.00    +0.000 OA
ENDBRANCH   3  10
ENDBRANCH   2   5
ENDBRANCH   1   2
BRANCH   1  12
ATOM     12  C7  056 A1922      21.013 -13.578 -32.269  0.00  0.00    +0.000 C 
BRANCH  12  16
ATOM     13  C6  056 A1922      19.934 -12.245 -35.786  0.00  0.00    +0.000 A 
ATOM     14  C1  056 A1922      19.907 -13.051 -34.647  0.00  0.00    +0.000 A 
ATOM     15 CL1  056 A1922      18.643 -14.341 -34.558  0.00  0.00    +0.000 Cl
ATOM     16  C2  056 A1922      20.911 -12.787 -33.558  0.00  0.00    +0.000 A 
ATOM     17  C3  056 A1922      21.835 -11.765 -33.738  0.00  0.00    +0.000 A 
ATOM     18  C4  056 A1922      21.806 -11.004 -34.899  0.00  0.00    +0.000 A 
ATOM     19  C5  056 A1922      20.875 -11.224 -35.916  0.00  0.00    +0.000 A 
ATOM     20 CL2  056 A1922      20.887 -10.186 -37.397  0.00  0.00    +0.000 Cl
ENDBRANCH  12  16
ENDBRANCH   1  12
TORSDOF 5
