REMARK  Name = ligand_pdbs\0XU.pdb
REMARK  6 active torsions:
REMARK  status: ('A' for Active; 'I' for Inactive)
REMARK    1  A    between atoms: CA_2  and  C_3
REMARK    2  A    between atoms: CA_2  and  CB_6
REMARK    3  A    between atoms: CB_6  and  CG_7
REMARK    4  A    between atoms: CG_7  and  CD_8
REMARK    5  A    between atoms: CD_8  and  C5'_10
REMARK    6  A    between atoms: C1'_17  and  N9_18
REMARK                            x       y       z     vdW  Elec       q    Type
REMARK                         _______ _______ _______ _____ _____    ______ ____
ROOT
ATOM      1  C5' 0XU A 701     -31.658 -38.451  -6.140  0.00  0.00    +0.000 C 
ATOM      2  C4' 0XU A 701     -32.209 -38.312  -4.934  0.00  0.00    +0.000 C 
ATOM      3  O4' 0XU A 701     -32.930 -37.169  -4.680  0.00  0.00    +0.000 OA
ATOM      4  C3' 0XU A 701     -32.153 -39.229  -3.753  0.00  0.00    +0.000 C 
ATOM      5  O3' 0XU A 701     -31.119 -38.766  -2.900  0.00  0.00    +0.000 OA
ATOM      6  C2' 0XU A 701     -33.504 -38.917  -3.123  0.00  0.00    +0.000 C 
ATOM      7  O2' 0XU A 701     -33.515 -38.951  -1.703  0.00  0.00    +0.000 OA
ATOM      8  C1' 0XU A 701     -33.743 -37.477  -3.549  0.00  0.00    +0.000 C 
ENDROOT
BRANCH   8   9
ATOM      9  N9  0XU A 701     -35.133 -37.153  -3.821  0.00  0.00    +0.000 N 
ATOM     10  C8  0XU A 701     -36.102 -37.908  -4.434  0.00  0.00    +0.000 C 
ATOM     11  N7  0XU A 701     -37.301 -37.318  -4.383  0.00  0.00    +0.000 NA
ATOM     12  C5  0XU A 701     -37.081 -36.129  -3.691  0.00  0.00    +0.000 C 
ATOM     13  C6  0XU A 701     -37.880 -35.041  -3.354  0.00  0.00    +0.000 C 
ATOM     14  N6  0XU A 701     -39.272 -34.970  -3.666  0.00  0.00    +0.000 NA
ATOM     15  N1  0XU A 701     -37.314 -34.027  -2.662  0.00  0.00    +0.000 NA
ATOM     16  C2  0XU A 701     -35.989 -34.055  -2.370  0.00  0.00    +0.000 C 
ATOM     17  N3  0XU A 701     -35.110 -35.036  -2.660  0.00  0.00    +0.000 NA
ATOM     18  C4  0XU A 701     -35.730 -36.027  -3.337  0.00  0.00    +0.000 C 
ENDBRANCH   8   9
BRANCH   1  19
ATOM     19  CD  0XU A 701     -30.923 -39.613  -6.739  0.00  0.00    +0.000 C 
ATOM     20  NE  0XU A 701     -31.778 -40.273  -7.755  0.00  0.00    +0.000 NA
BRANCH  19  21
ATOM     21  CG  0XU A 701     -29.560 -39.114  -7.252  0.00  0.00    +0.000 C 
BRANCH  21  22
ATOM     22  CB  0XU A 701     -28.651 -38.767  -6.071  0.00  0.00    +0.000 C 
BRANCH  22  24
ATOM     23  N   0XU A 701     -27.850 -36.507  -6.910  0.00  0.00    +0.000 NA
ATOM     24  CA  0XU A 701     -27.480 -37.807  -6.336  0.00  0.00    +0.000 C 
BRANCH  24  25
ATOM     25  C   0XU A 701     -26.346 -38.433  -7.126  0.00  0.00    +0.000 C 
ATOM     26  O   0XU A 701     -26.504 -38.238  -8.472  0.00  0.00    +0.000 OA
ATOM     27  OXT 0XU A 701     -25.402 -39.047  -6.631  0.00  0.00    +0.000 OA
ENDBRANCH  24  25
ENDBRANCH  22  24
ENDBRANCH  21  22
ENDBRANCH  19  21
ENDBRANCH   1  19
TORSDOF 6
