REMARK  Name = ligand_pdbs\17H.pdb
REMARK  2 active torsions:
REMARK  status: ('A' for Active; 'I' for Inactive)
REMARK    1  A    between atoms: C13_13  and  C18_18
REMARK    2  A    between atoms: C17_17  and  C20_21
REMARK                            x       y       z     vdW  Elec       q    Type
REMARK                         _______ _______ _______ _____ _____    ______ ____
ROOT
ATOM      1  C2  17H A1001      26.186   6.566   4.230  0.00  0.00    +0.000 A 
ATOM      2  C4  17H A1001      23.936   5.301   4.521  0.00  0.00    +0.000 A 
ATOM      3  C7  17H A1001      24.895   1.588   4.335  0.00  0.00    +0.000 C 
ATOM      4  C6  17H A1001      24.113   2.754   4.966  0.00  0.00    +0.000 C 
ATOM      5  C9  17H A1001      27.030   2.939   4.553  0.00  0.00    +0.000 C 
ATOM      6  C11 17H A1001      28.529   2.890   4.210  0.00  0.00    +0.000 C 
ATOM      7  C1  17H A1001      26.978   5.400   4.080  0.00  0.00    +0.000 A 
ATOM      8  C3  17H A1001      24.753   6.403   4.238  0.00  0.00    +0.000 A 
ATOM      9  C5  17H A1001      24.728   4.134   4.664  0.00  0.00    +0.000 A 
ATOM     10  C8  17H A1001      26.352   1.562   4.909  0.00  0.00    +0.000 C 
ATOM     11  C10 17H A1001      26.264   4.121   4.480  0.00  0.00    +0.000 A 
ATOM     12  C12 17H A1001      29.323   1.730   4.190  0.00  0.00    +0.000 C 
ATOM     13  C13 17H A1001      28.719   0.412   4.579  0.00  0.00    +0.000 C 
ATOM     14  C14 17H A1001      27.205   0.463   4.208  0.00  0.00    +0.000 C 
ATOM     15  C15 17H A1001      26.672  -0.975   4.350  0.00  0.00    +0.000 C 
ATOM     16  C16 17H A1001      27.928  -1.759   3.864  0.00  0.00    +0.000 C 
ATOM     17  C17 17H A1001      29.175  -0.779   3.776  0.00  0.00    +0.000 C 
ATOM     18  O3  17H A1001      24.053   7.596   3.948  0.00  0.00    +0.000 OA
ATOM     19  O17 17H A1001      30.317  -1.324   4.491  0.00  0.00    +0.000 OA
ENDROOT
BRANCH  13  20
ATOM     20  C18 17H A1001      28.782   0.299   6.217  0.00  0.00    +0.000 C 
ATOM     21  C22 17H A1001      30.112   0.760   7.021  0.00  0.00    +0.000 C 
ENDBRANCH  13  20
BRANCH  17  23
ATOM     22  C21 17H A1001      30.200  -1.792   1.732  0.00  0.00    +0.000 C 
ATOM     23  C20 17H A1001      29.356  -0.520   2.278  0.00  0.00    +0.000 C 
ENDBRANCH  17  23
TORSDOF 2
