REMARK  Name = ligand_pdbs\17W.pdb
REMARK  5 active torsions:
REMARK  status: ('A' for Active; 'I' for Inactive)
REMARK    1  A    between atoms: C14_6  and  O13_7
REMARK    2  A    between atoms: O13_7  and  C12_8
REMARK    3  A    between atoms: C12_8  and  C11_9
REMARK    4  A    between atoms: C11_9  and  S10_10
REMARK    5  A    between atoms: S10_10  and  C8_11
REMARK                            x       y       z     vdW  Elec       q    Type
REMARK                         _______ _______ _______ _____ _____    ______ ____
ROOT
ATOM      1  S10 17W A1002      15.586  16.415  27.890  0.00  0.00    +0.000 S 
ENDROOT
BRANCH   1   2
ATOM      2  C8  17W A1002      14.868  18.020  27.979  0.00  0.00    +0.000 C 
ATOM      3  N9  17W A1002      15.247  18.946  28.890  0.00  0.00    +0.000 NA
ATOM      4  C2  17W A1002      14.460  20.028  28.641  0.00  0.00    +0.000 A 
ATOM      5  N7  17W A1002      13.876  18.396  27.154  0.00  0.00    +0.000 NA
ATOM      6  C3  17W A1002      13.568  19.663  27.505  0.00  0.00    +0.000 A 
ATOM      7  C4  17W A1002      12.646  20.603  27.039  0.00  0.00    +0.000 A 
ATOM      8  C5  17W A1002      12.573  21.860  27.636  0.00  0.00    +0.000 A 
ATOM      9  C6  17W A1002      13.410  22.202  28.699  0.00  0.00    +0.000 A 
ATOM     10  C1  17W A1002      14.347  21.299  29.202  0.00  0.00    +0.000 A 
ENDBRANCH   1   2
BRANCH   1  11
ATOM     11  C11 17W A1002      17.342  16.456  27.998  0.00  0.00    +0.000 C 
BRANCH  11  12
ATOM     12  C12 17W A1002      17.826  15.526  29.104  0.00  0.00    +0.000 C 
BRANCH  12  13
ATOM     13  O13 17W A1002      18.470  16.353  30.068  0.00  0.00    +0.000 OA
BRANCH  13  19
ATOM     14  C19 17W A1002      20.070  16.718  31.792  0.00  0.00    +0.000 A 
ATOM     15  C18 17W A1002      20.868  16.235  32.818  0.00  0.00    +0.000 A 
ATOM     16  C17 17W A1002      20.840  14.875  33.120  0.00  0.00    +0.000 A 
ATOM     17  C16 17W A1002      20.024  13.997  32.407  0.00  0.00    +0.000 A 
ATOM     18  C15 17W A1002      19.222  14.485  31.382  0.00  0.00    +0.000 A 
ATOM     19  C14 17W A1002      19.250  15.846  31.075  0.00  0.00    +0.000 A 
ENDBRANCH  13  19
ENDBRANCH  12  13
ENDBRANCH  11  12
ENDBRANCH   1  11
TORSDOF 5
