REMARK  Name = ligand_pdbs\2MI.pdb
REMARK  0 active torsions:
REMARK  status: ('A' for Active; 'I' for Inactive)
REMARK                            x       y       z     vdW  Elec       q    Type
REMARK                         _______ _______ _______ _____ _____    ______ ____
ROOT
ATOM      1  CAJ 2MI A 933      59.538   9.402  21.094  0.00  0.00    +0.000 C 
ATOM      2  CAG 2MI A 933      60.187   8.674  19.915  0.00  0.00    +0.000 C 
ATOM      3  CAC 2MI A 933      59.612   7.692  19.226  0.00  0.00    +0.000 C 
ATOM      4  CAA 2MI A 933      60.483   7.309  18.296  0.00  0.00    +0.000 A 
ATOM      5  CAD 2MI A 933      60.433   6.332  17.306  0.00  0.00    +0.000 A 
ATOM      6  CAH 2MI A 933      61.522   6.145  16.460  0.00  0.00    +0.000 A 
ATOM      7  CAI 2MI A 933      62.660   6.934  16.602  0.00  0.00    +0.000 A 
ATOM      8  CAF 2MI A 933      62.711   7.912  17.591  0.00  0.00    +0.000 A 
ATOM      9  CAB 2MI A 933      61.622   8.098  18.438  0.00  0.00    +0.000 A 
ATOM     10  NAE 2MI A 933      61.405   8.934  19.450  0.00  0.00    +0.000 NA
ENDROOT
TORSDOF 0
