REMARK  Name = ligand_pdbs\30Z.pdb
REMARK  5 active torsions:
REMARK  status: ('A' for Active; 'I' for Inactive)
REMARK    1  A    between atoms: C17_8  and  C15_9
REMARK    2  A    between atoms: C15_9  and  C14_10
REMARK    3  A    between atoms: C14_10  and  C12_12
REMARK    4  A    between atoms: C12_12  and  C11_14
REMARK    5  A    between atoms: C11_14  and  C3_15
REMARK                            x       y       z     vdW  Elec       q    Type
REMARK                         _______ _______ _______ _____ _____    ______ ____
ROOT
ATOM      1  C14 30Z A1920      17.048  16.130  29.293  0.00  0.00    +0.000 C 
ATOM      2  C16 30Z A1920      18.524  15.780  29.143  0.00  0.00    +0.000 C 
ENDROOT
BRANCH   1   3
ATOM      3  C12 30Z A1920      16.595  17.060  28.170  0.00  0.00    +0.000 C 
ATOM      4  C13 30Z A1920      16.898  16.357  26.861  0.00  0.00    +0.000 C 
BRANCH   3   5
ATOM      5  C11 30Z A1920      15.111  17.412  28.239  0.00  0.00    +0.000 C 
BRANCH   5   6
ATOM      6  C3  30Z A1920      14.818  18.902  28.300  0.00  0.00    +0.000 A 
ATOM      7  C2  30Z A1920      15.710  19.785  28.909  0.00  0.00    +0.000 A 
ATOM      8  C4  30Z A1920      13.629  19.387  27.753  0.00  0.00    +0.000 A 
ATOM      9  C5  30Z A1920      13.315  20.743  27.796  0.00  0.00    +0.000 A 
ATOM     10  O9  30Z A1920      12.153  21.211  27.259  0.00  0.00    +0.000 OA
ATOM     11  C6  30Z A1920      14.272  21.677  28.440  0.00  0.00    +0.000 A 
ATOM     12  C1  30Z A1920      15.444  21.153  28.976  0.00  0.00    +0.000 A 
ATOM     13  O7  30Z A1920      14.007  23.015  28.510  0.00  0.00    +0.000 OA
ENDBRANCH   5   6
ENDBRANCH   3   5
ENDBRANCH   1   3
BRANCH   1  14
ATOM     14  C15 30Z A1920      16.785  16.697  30.680  0.00  0.00    +0.000 C 
BRANCH  14  22
ATOM     15  O25 30Z A1920      20.953  14.415  31.913  0.00  0.00    +0.000 OA
ATOM     16  C19 30Z A1920      20.093  15.468  32.066  0.00  0.00    +0.000 A 
ATOM     17  C18 30Z A1920      18.921  15.538  31.319  0.00  0.00    +0.000 A 
ATOM     18  C20 30Z A1920      20.396  16.556  33.031  0.00  0.00    +0.000 A 
ATOM     19  O23 30Z A1920      21.533  16.534  33.778  0.00  0.00    +0.000 OA
ATOM     20  C21 30Z A1920      19.505  17.610  33.165  0.00  0.00    +0.000 A 
ATOM     21  C22 30Z A1920      18.347  17.634  32.396  0.00  0.00    +0.000 A 
ATOM     22  C17 30Z A1920      18.058  16.616  31.488  0.00  0.00    +0.000 A 
ENDBRANCH  14  22
ENDBRANCH   1  14
TORSDOF 5
