REMARK  Name = ligand_pdbs\3B6.pdb
REMARK  7 active torsions:
REMARK  status: ('A' for Active; 'I' for Inactive)
REMARK    1  A    between atoms: C3_4  and  C8_5
REMARK    2  A    between atoms: C6_9  and  N9_10
REMARK    3  A    between atoms: C10_11  and  C11_13
REMARK    4  A    between atoms: C11_13  and  C13_16
REMARK    5  A    between atoms: C13_16  and  O14_17
REMARK    6  A    between atoms: O14_17  and  C16_18
REMARK    7  A    between atoms: C19_21  and  C22_22
REMARK                            x       y       z     vdW  Elec       q    Type
REMARK                         _______ _______ _______ _____ _____    ______ ____
ROOT
ATOM      1  C11 3B6 A   1      29.719   0.706   3.960  0.00  0.00    +0.000 C 
ATOM      2  O11 3B6 A   1      30.767   1.573   3.518  0.00  0.00    +0.000 OA
ATOM      3  C12 3B6 A   1      29.597  -0.499   3.024  0.00  0.00    +0.000 C 
ENDROOT
BRANCH   1   5
ATOM      4  N9  3B6 A   1      28.541   2.794   3.768  0.00  0.00    +0.000 NA
ATOM      5  C10 3B6 A   1      28.402   1.487   3.976  0.00  0.00    +0.000 C 
ATOM      6  O10 3B6 A   1      27.332   0.918   4.186  0.00  0.00    +0.000 OA
BRANCH   4  13
ATOM      7  C5  3B6 A   1      26.214   3.382   3.921  0.00  0.00    +0.000 A 
ATOM      8  C4  3B6 A   1      25.235   4.373   3.858  0.00  0.00    +0.000 A 
ATOM      9  I7  3B6 A   1      23.218   3.878   4.163  0.00  0.00    +0.000 I 
ATOM     10  C3  3B6 A   1      25.612   5.687   3.605  0.00  0.00    +0.000 A 
ATOM     11  C2  3B6 A   1      26.954   6.008   3.422  0.00  0.00    +0.000 A 
ATOM     12  C1  3B6 A   1      27.925   5.015   3.486  0.00  0.00    +0.000 A 
ATOM     13  C6  3B6 A   1      27.559   3.695   3.736  0.00  0.00    +0.000 A 
BRANCH  10  14
ATOM     14  C8  3B6 A   1      24.646   6.740   3.508  0.00  0.00    +0.000 C 
ATOM     15  N8  3B6 A   1      23.888   7.582   3.425  0.00  0.00    +0.000 NA
ENDBRANCH  10  14
ENDBRANCH   4  13
ENDBRANCH   1   5
BRANCH   1  16
ATOM     16  C13 3B6 A   1      30.020   0.218   5.369  0.00  0.00    +0.000 C 
BRANCH  16  17
ATOM     17  O14 3B6 A   1      30.129   1.347   6.252  0.00  0.00    +0.000 OA
BRANCH  17  18
ATOM     18  C16 3B6 A   1      29.871   1.064   7.560  0.00  0.00    +0.000 A 
ATOM     19  C17 3B6 A   1      30.232  -0.151   8.138  0.00  0.00    +0.000 A 
ATOM     20  C18 3B6 A   1      29.998  -0.386   9.490  0.00  0.00    +0.000 A 
ATOM     21  C19 3B6 A   1      29.401   0.597  10.272  0.00  0.00    +0.000 A 
ATOM     22  C20 3B6 A   1      29.032   1.811   9.698  0.00  0.00    +0.000 A 
ATOM     23  C21 3B6 A   1      29.267   2.043   8.346  0.00  0.00    +0.000 A 
BRANCH  21  24
ATOM     24  C22 3B6 A   1      29.215   0.385  11.676  0.00  0.00    +0.000 C 
ATOM     25  N22 3B6 A   1      29.072   0.225  12.793  0.00  0.00    +0.000 NA
ENDBRANCH  21  24
ENDBRANCH  17  18
ENDBRANCH  16  17
ENDBRANCH   1  16
TORSDOF 7
