REMARK  Name = ligand_pdbs\3E0.pdb
REMARK  2 active torsions:
REMARK  status: ('A' for Active; 'I' for Inactive)
REMARK    1  A    between atoms: CAJ_11  and  CAI_12
REMARK    2  A    between atoms: CAC_18  and  OAD_19
REMARK                            x       y       z     vdW  Elec       q    Type
REMARK                         _______ _______ _______ _____ _____    ______ ____
ROOT
ATOM      1  CAP 3E0 A1001      30.225  -0.405   4.834  0.00  0.00    +0.000 C 
ATOM      2  CAQ 3E0 A1001      30.322  -1.331   3.699  0.00  0.00    +0.000 C 
ATOM      3  OAR 3E0 A1001      29.333  -2.403   3.789  0.00  0.00    +0.000 OA
ATOM      4  CAS 3E0 A1001      27.968  -1.850   3.665  0.00  0.00    +0.000 C 
ATOM      5  CAT 3E0 A1001      27.753  -0.951   4.832  0.00  0.00    +0.000 C 
ATOM      6  NAO 3E0 A1001      28.772   0.088   4.856  0.00  0.00    +0.000 N 
ATOM      7  CAL 3E0 A1001      28.382   1.437   4.668  0.00  0.00    +0.000 C 
ATOM      8  NAK 3E0 A1001      27.172   1.817   4.601  0.00  0.00    +0.000 NA
ATOM      9  SAM 3E0 A1001      29.658   2.639   4.587  0.00  0.00    +0.000 S 
ATOM     10  CAN 3E0 A1001      28.363   3.788   4.372  0.00  0.00    +0.000 C 
ATOM     11  CAJ 3E0 A1001      27.148   3.192   4.404  0.00  0.00    +0.000 C 
ENDROOT
BRANCH  11  12
ATOM     12  CAI 3E0 A1001      25.800   3.762   4.282  0.00  0.00    +0.000 A 
ATOM     13  CAH 3E0 A1001      24.653   2.984   4.615  0.00  0.00    +0.000 A 
ATOM     14  CAG 3E0 A1001      23.358   3.462   4.521  0.00  0.00    +0.000 A 
ATOM     15  CAF 3E0 A1001      23.158   4.780   4.149  0.00  0.00    +0.000 A 
ATOM     16  CAB 3E0 A1001      24.237   5.536   3.860  0.00  0.00    +0.000 A 
ATOM     17  FAA 3E0 A1001      24.091   6.843   3.407  0.00  0.00    +0.000 F 
ATOM     18  CAC 3E0 A1001      25.564   5.142   3.883  0.00  0.00    +0.000 A 
BRANCH  18  19
ATOM     19  OAD 3E0 A1001      26.666   5.919   3.558  0.00  0.00    +0.000 OA
ATOM     20  CAE 3E0 A1001      26.687   7.279   4.069  0.00  0.00    +0.000 C 
ENDBRANCH  18  19
ENDBRANCH  11  12
TORSDOF 2
