REMARK  Name = ligand_pdbs\3XV.pdb
REMARK  6 active torsions:
REMARK  status: ('A' for Active; 'I' for Inactive)
REMARK    1  A    between atoms: C4_2  and  CAE_20
REMARK    2  A    between atoms: NAS_14  and  CAR_15
REMARK    3  A    between atoms: CAR_15  and  CAB_16
REMARK    4  A    between atoms: CAB_16  and  CAC_18
REMARK    5  A    between atoms: CAC_18  and  NAD_19
REMARK    6  A    between atoms: NAJ_24  and  CAK_25
REMARK                            x       y       z     vdW  Elec       q    Type
REMARK                         _______ _______ _______ _____ _____    ______ ____
ROOT
ATOM      1  CAC 3XV A 702      19.122 -47.845 -10.948  0.00  0.00    +0.000 C 
ENDROOT
BRANCH   1   2
ATOM      2  NAD 3XV A 702      20.171 -48.826 -10.635  0.00  0.00    +0.000 NA
ATOM      3  CAE 3XV A 702      20.951 -49.382 -11.584  0.00  0.00    +0.000 C 
ATOM      4  OAF 3XV A 702      20.813 -49.164 -12.795  0.00  0.00    +0.000 OA
BRANCH   3   6
ATOM      5  C2  3XV A 702      22.698 -51.880  -9.538  0.00  0.00    +0.000 C 
ATOM      6  C4  3XV A 702      21.969 -50.219 -11.096  0.00  0.00    +0.000 C 
ATOM      7  C5  3XV A 702      23.255 -50.178 -11.664  0.00  0.00    +0.000 C 
ATOM      8  C6  3XV A 702      24.258 -51.013 -11.141  0.00  0.00    +0.000 C 
ATOM      9  N3  3XV A 702      21.709 -51.045 -10.055  0.00  0.00    +0.000 NA
ATOM     10  N1  3XV A 702      23.976 -51.839 -10.105  0.00  0.00    +0.000 NA
ATOM     11  NAJ 3XV A 702      25.503 -51.006 -11.655  0.00  0.00    +0.000 NA
BRANCH  11  12
ATOM     12  CAK 3XV A 702      26.607 -51.787 -11.051  0.00  0.00    +0.000 C 
ATOM     13  CAL 3XV A 702      27.271 -51.039  -9.903  0.00  0.00    +0.000 C 
ATOM     14  OAM 3XV A 702      28.557 -51.346 -10.525  0.00  0.00    +0.000 OA
ATOM     15  CAN 3XV A 702      27.909 -51.575 -11.811  0.00  0.00    +0.000 C 
ENDBRANCH  11  12
ENDBRANCH   3   6
ENDBRANCH   1   2
BRANCH   1  16
ATOM     16  CAB 3XV A 702      19.525 -46.489 -10.317  0.00  0.00    +0.000 C 
ATOM     17  OAA 3XV A 702      18.752 -45.413 -10.863  0.00  0.00    +0.000 OA
BRANCH  16  18
ATOM     18  CAR 3XV A 702      21.011 -46.203 -10.567  0.00  0.00    +0.000 C 
BRANCH  18  28
ATOM     19  CAT 3XV A 702      22.694 -44.541 -10.649  0.00  0.00    +0.000 C 
ATOM     20  CAU 3XV A 702      23.182 -43.214 -10.155  0.00  0.00    +0.000 C 
ATOM     21  CAV 3XV A 702      23.095 -43.137  -8.755  0.00  0.00    +0.000 A 
ATOM     22  CBB 3XV A 702      23.872 -42.172  -8.096  0.00  0.00    +0.000 A 
ATOM     23  CBA 3XV A 702      23.828 -42.055  -6.706  0.00  0.00    +0.000 A 
ATOM     24  CAZ 3XV A 702      23.006 -42.892  -5.957  0.00  0.00    +0.000 A 
ATOM     25  CAY 3XV A 702      22.224 -43.849  -6.596  0.00  0.00    +0.000 A 
ATOM     26  CAW 3XV A 702      22.259 -43.985  -7.994  0.00  0.00    +0.000 A 
ATOM     27  CAX 3XV A 702      21.454 -44.973  -8.573  0.00  0.00    +0.000 C 
ATOM     28  NAS 3XV A 702      21.395 -44.890 -10.042  0.00  0.00    +0.000 NA
ENDBRANCH  18  28
ENDBRANCH  16  18
ENDBRANCH   1  16
TORSDOF 6
