REMARK  Name = ligand_pdbs\5CT.pdb
REMARK  10 active torsions:
REMARK  status: ('A' for Active; 'I' for Inactive)
REMARK    1  A    between atoms: CG_1  and  CD_2
REMARK    2  A    between atoms: CG_1  and  CB_11
REMARK    3  A    between atoms: CD_2  and  CE_3
REMARK    4  A    between atoms: CE_3  and  NZ_4
REMARK    5  A    between atoms: NZ_4  and  C1_5
REMARK    6  A    between atoms: C1_5  and  C2_6
REMARK    7  A    between atoms: C2_6  and  C3_7
REMARK    8  A    between atoms: C3_7  and  C4_8
REMARK    9  A    between atoms: CB_11  and  CA_12
REMARK   10  A    between atoms: CA_12  and  C_13
REMARK                            x       y       z     vdW  Elec       q    Type
REMARK                         _______ _______ _______ _____ _____    ______ ____
ROOT
ATOM      1  CE  5CT F  50      51.923  65.278 813.534  0.00  0.00    +0.000 C 
ENDROOT
BRANCH   1   2
ATOM      2  CD  5CT F  50      52.526  64.021 814.219  0.00  0.00    +0.000 C 
BRANCH   2   3
ATOM      3  CG  5CT F  50      53.366  64.344 815.475  0.00  0.00    +0.000 C 
BRANCH   3   4
ATOM      4  CB  5CT F  50      52.684  65.350 816.426  0.00  0.00    +0.000 C 
BRANCH   4   5
ATOM      5  CA  5CT F  50      52.773  64.936 817.903  0.00  0.00    +0.000 C 
ATOM      6  N   5CT F  50      52.369  66.006 818.748  0.00  0.00    +0.000 NA
BRANCH   5   7
ATOM      7  C   5CT F  50      54.177  64.604 818.284  0.00  0.00    +0.000 C 
ATOM      8  O   5CT F  50      54.574  63.413 818.289  0.00  0.00    +0.000 OA
ENDBRANCH   5   7
ENDBRANCH   4   5
ENDBRANCH   3   4
ENDBRANCH   2   3
ENDBRANCH   1   2
BRANCH   1   9
ATOM      9  NZ  5CT F  50      51.403  64.904 812.231  0.00  0.00    +0.000 NA
BRANCH   9  10
ATOM     10  C1  5CT F  50      50.053  65.423 812.070  0.00  0.00    +0.000 C 
BRANCH  10  11
ATOM     11  C2  5CT F  50      49.391  64.777 810.859  0.00  0.00    +0.000 C 
ATOM     12  O1  5CT F  50      50.278  63.860 810.294  0.00  0.00    +0.000 OA
BRANCH  11  13
ATOM     13  C3  5CT F  50      48.117  64.060 811.303  0.00  0.00    +0.000 C 
BRANCH  13  14
ATOM     14  C4  5CT F  50      46.882  64.975 811.275  0.00  0.00    +0.000 C 
ATOM     15  N1  5CT F  50      45.739  64.257 810.790  0.00  0.00    +0.000 NA
ENDBRANCH  13  14
ENDBRANCH  11  13
ENDBRANCH  10  11
ENDBRANCH   9  10
ENDBRANCH   1   9
TORSDOF 10
