REMARK  Name = ligand_pdbs\5QK.pdb
REMARK  7 active torsions:
REMARK  status: ('A' for Active; 'I' for Inactive)
REMARK    1  A    between atoms: NAT_10  and  CAS_11
REMARK    2  A    between atoms: CAS_11  and  CAB_12
REMARK    3  A    between atoms: CAB_12  and  CAC_14
REMARK    4  A    between atoms: CAC_14  and  NAD_15
REMARK    5  A    between atoms: CAE_16  and  CAG_18
REMARK    6  A    between atoms: CAG_18  and  OAH_19
REMARK    7  A    between atoms: OAH_19  and  CAI_20
REMARK                            x       y       z     vdW  Elec       q    Type
REMARK                         _______ _______ _______ _____ _____    ______ ____
ROOT
ATOM      1  NAD 5QK A 702      20.418 -49.234 -10.581  0.00  0.00    +0.000 NA
ATOM      2  CAE 5QK A 702      21.291 -49.700 -11.543  0.00  0.00    +0.000 C 
ATOM      3  OAF 5QK A 702      21.202 -49.498 -12.761  0.00  0.00    +0.000 OA
ENDROOT
BRANCH   1   4
ATOM      4  CAC 5QK A 702      19.246 -48.360 -10.868  0.00  0.00    +0.000 C 
BRANCH   4   5
ATOM      5  CAB 5QK A 702      19.672 -46.866 -11.023  0.00  0.00    +0.000 C 
ATOM      6  OAA 5QK A 702      18.864 -46.029 -10.207  0.00  0.00    +0.000 OA
BRANCH   5   7
ATOM      7  CAS 5QK A 702      21.177 -46.598 -10.669  0.00  0.00    +0.000 C 
BRANCH   7  17
ATOM      8  CAU 5QK A 702      22.728 -44.752 -10.742  0.00  0.00    +0.000 C 
ATOM      9  CAV 5QK A 702      23.120 -43.372 -10.237  0.00  0.00    +0.000 C 
ATOM     10  CAW 5QK A 702      23.070 -43.337  -8.834  0.00  0.00    +0.000 A 
ATOM     11  CBC 5QK A 702      23.798 -42.341  -8.164  0.00  0.00    +0.000 A 
ATOM     12  CBB 5QK A 702      23.771 -42.282  -6.772  0.00  0.00    +0.000 A 
ATOM     13  CBA 5QK A 702      23.013 -43.198  -6.040  0.00  0.00    +0.000 A 
ATOM     14  CAZ 5QK A 702      22.286 -44.197  -6.686  0.00  0.00    +0.000 A 
ATOM     15  CAX 5QK A 702      22.310 -44.273  -8.084  0.00  0.00    +0.000 A 
ATOM     16  CAY 5QK A 702      21.563 -45.292  -8.682  0.00  0.00    +0.000 C 
ATOM     17  NAT 5QK A 702      21.462 -45.233 -10.152  0.00  0.00    +0.000 NA
ENDBRANCH   7  17
ENDBRANCH   5   7
ENDBRANCH   4   5
ENDBRANCH   1   4
BRANCH   2  18
ATOM     18  CAG 5QK A 702      22.466 -50.553 -11.034  0.00  0.00    +0.000 C 
BRANCH  18  19
ATOM     19  OAH 5QK A 702      22.131 -51.205  -9.794  0.00  0.00    +0.000 OA
BRANCH  19  20
ATOM     20  CAI 5QK A 702      23.253 -51.665  -9.196  0.00  0.00    +0.000 A 
ATOM     21  CAJ 5QK A 702      23.353 -51.460  -7.813  0.00  0.00    +0.000 A 
ATOM     22  NAK 5QK A 702      22.376 -50.825  -7.122  0.00  0.00    +0.000 NA
ATOM     23  CAL 5QK A 702      22.502 -50.613  -5.723  0.00  0.00    +0.000 A 
ATOM     24  CAM 5QK A 702      23.640 -51.062  -5.043  0.00  0.00    +0.000 A 
ATOM     25  CAN 5QK A 702      24.643 -51.719  -5.760  0.00  0.00    +0.000 A 
ATOM     26  CAO 5QK A 702      24.499 -51.917  -7.140  0.00  0.00    +0.000 A 
ATOM     27  CAP 5QK A 702      25.499 -52.570  -7.868  0.00  0.00    +0.000 A 
ATOM     28  CAQ 5QK A 702      25.380 -52.771  -9.247  0.00  0.00    +0.000 A 
ATOM     29  CAR 5QK A 702      24.252 -52.317  -9.922  0.00  0.00    +0.000 A 
ENDBRANCH  19  20
ENDBRANCH  18  19
ENDBRANCH   2  18
TORSDOF 7
