REMARK  Name = ligand_pdbs\6L8.pdb
REMARK  7 active torsions:
REMARK  status: ('A' for Active; 'I' for Inactive)
REMARK    1  A    between atoms: C10_2  and  C13_8
REMARK    2  A    between atoms: C6_4  and  C5_15
REMARK    3  A    between atoms: C8_6  and  C12_7
REMARK    4  A    between atoms: N2_18  and  C3_20
REMARK    5  A    between atoms: C3_20  and  C2_21
REMARK    6  A    between atoms: C2_21  and  C1'_22
REMARK    7  A    between atoms: C2_21  and  C1_28
REMARK                            x       y       z     vdW  Elec       q    Type
REMARK                         _______ _______ _______ _____ _____    ______ ____
ROOT
ATOM      1  C5  6L8 C1101     -32.356  72.973  28.253  0.00  0.00    +0.000 C 
ATOM      2  N3  6L8 C1101     -31.004  72.817  28.307  0.00  0.00    +0.000 NA
ATOM      3  C4  6L8 C1101     -30.437  73.915  28.848  0.00  0.00    +0.000 C 
ATOM      4  N2  6L8 C1101     -31.441  74.745  29.115  0.00  0.00    +0.000 N 
ATOM      5  N4  6L8 C1101     -32.667  74.177  28.755  0.00  0.00    +0.000 NA
ENDROOT
BRANCH   1   9
ATOM      6  C9  6L8 C1101     -35.144  70.124  26.721  0.00  0.00    +0.000 A 
ATOM      7  C10 6L8 C1101     -33.791  69.830  26.774  0.00  0.00    +0.000 A 
ATOM      8  C11 6L8 C1101     -32.891  70.765  27.272  0.00  0.00    +0.000 A 
ATOM      9  C6  6L8 C1101     -33.342  71.993  27.726  0.00  0.00    +0.000 A 
ATOM     10  C7  6L8 C1101     -34.699  72.294  27.672  0.00  0.00    +0.000 A 
ATOM     11  C8  6L8 C1101     -35.603  71.352  27.170  0.00  0.00    +0.000 A 
BRANCH  11  12
ATOM     12  C12 6L8 C1101     -37.071  71.673  27.101  0.00  0.00    +0.000 C 
ATOM     13  F6  6L8 C1101     -37.456  71.971  28.315  0.00  0.00    +0.000 F 
ATOM     14  F5  6L8 C1101     -37.851  70.679  26.687  0.00  0.00    +0.000 F 
ATOM     15  F4  6L8 C1101     -37.196  72.711  26.293  0.00  0.00    +0.000 F 
ENDBRANCH  11  12
BRANCH   7  16
ATOM     16  C13 6L8 C1101     -33.312  68.497  26.283  0.00  0.00    +0.000 C 
ATOM     17  F2  6L8 C1101     -34.296  67.614  26.295  0.00  0.00    +0.000 F 
ATOM     18  F1  6L8 C1101     -32.884  68.622  25.051  0.00  0.00    +0.000 F 
ATOM     19  F3  6L8 C1101     -32.301  68.091  27.021  0.00  0.00    +0.000 F 
ENDBRANCH   7  16
ENDBRANCH   1   9
BRANCH   4  20
ATOM     20  C3  6L8 C1101     -31.527  76.104  29.725  0.00  0.00    +0.000 C 
BRANCH  20  21
ATOM     21  C2  6L8 C1101     -30.958  77.221  28.834  0.00  0.00    +0.000 C 
BRANCH  21  22
ATOM     22  C1' 6L8 C1101     -31.100  76.875  27.396  0.00  0.00    +0.000 A 
ATOM     23  C4' 6L8 C1101     -29.949  76.629  26.655  0.00  0.00    +0.000 A 
ATOM     24  N2' 6L8 C1101     -30.081  76.322  25.356  0.00  0.00    +0.000 NA
ATOM     25  C3' 6L8 C1101     -31.291  76.253  24.764  0.00  0.00    +0.000 A 
ATOM     26  N1' 6L8 C1101     -32.414  76.485  25.459  0.00  0.00    +0.000 NA
ATOM     27  C2' 6L8 C1101     -32.349  76.795  26.763  0.00  0.00    +0.000 A 
ENDBRANCH  21  22
BRANCH  21  28
ATOM     28  C1  6L8 C1101     -31.604  78.577  29.090  0.00  0.00    +0.000 C 
ATOM     29  O1  6L8 C1101     -30.865  79.561  29.153  0.00  0.00    +0.000 OA
ATOM     30  N1  6L8 C1101     -32.939  78.726  29.232  0.00  0.00    +0.000 NA
ENDBRANCH  21  28
ENDBRANCH  20  21
ENDBRANCH   4  20
TORSDOF 7
