REMARK  Name = ligand_pdbs\6ZV.pdb
REMARK  5 active torsions:
REMARK  status: ('A' for Active; 'I' for Inactive)
REMARK    1  A    between atoms: C1_1  and  N2_7
REMARK    2  A    between atoms: C4_4  and  C16_13
REMARK    3  A    between atoms: C11_14  and  C14_27
REMARK    4  A    between atoms: C14_27  and  N30_34
REMARK    5  A    between atoms: C26_28  and  N22_33
REMARK                            x       y       z     vdW  Elec       q    Type
REMARK                         _______ _______ _______ _____ _____    ______ ____
ROOT
ATOM      1  C2  6ZV A 900     -52.473   7.533 -49.493  0.00  0.00    +0.000 C 
ATOM      2  C4  6ZV A 900     -52.799   9.935 -49.052  0.00  0.00    +0.000 C 
ATOM      3  C5  6ZV A 900     -51.988  10.150 -50.195  0.00  0.00    +0.000 C 
ATOM      4  C6  6ZV A 900     -51.462   9.078 -50.937  0.00  0.00    +0.000 C 
ATOM      5  C10 6ZV A 900     -53.893   5.553 -45.501  0.00  0.00    +0.000 A 
ATOM      6  C   6ZV A 900     -53.487   6.237 -46.653  0.00  0.00    +0.000 A 
ATOM      7  C12 6ZV A 900     -53.680   3.472 -46.682  0.00  0.00    +0.000 A 
ATOM      8  C11 6ZV A 900     -53.997   4.142 -45.486  0.00  0.00    +0.000 A 
ATOM      9  C8  6ZV A 900     -53.173   5.494 -47.867  0.00  0.00    +0.000 A 
ATOM     10  N   6ZV A 900     -53.280   4.128 -47.818  0.00  0.00    +0.000 NA
ATOM     11  N1  6ZV A 900     -51.695   7.785 -50.601  0.00  0.00    +0.000 NA
ATOM     12  N3  6ZV A 900     -53.024   8.609 -48.718  0.00  0.00    +0.000 NA
ATOM     13  N7  6ZV A 900     -52.721   6.112 -49.154  0.00  0.00    +0.000 NA
ATOM     14  F15 6ZV A 900     -51.677  11.411 -50.642  0.00  0.00    +0.000 F 
ENDROOT
BRANCH   2  17
ATOM     15  C17 6ZV A 900     -53.846  10.911 -46.936  0.00  0.00    +0.000 C 
ATOM     16  C21 6ZV A 900     -53.473  12.564 -48.681  0.00  0.00    +0.000 C 
ATOM     17  C16 6ZV A 900     -53.378  11.170 -48.224  0.00  0.00    +0.000 C 
ATOM     18  C19 6ZV A 900     -54.474  13.290 -46.544  0.00  0.00    +0.000 C 
ATOM     19  C18 6ZV A 900     -54.379  11.987 -46.136  0.00  0.00    +0.000 C 
ATOM     20  C20 6ZV A 900     -54.006  13.550 -47.839  0.00  0.00    +0.000 C 
ATOM     21  C23 6ZV A 900     -55.304  13.275 -44.466  0.00  0.00    +0.000 C 
ATOM     22  C25 6ZV A 900     -55.896  13.527 -43.117  0.00  0.00    +0.000 C 
ATOM     23  N24 6ZV A 900     -55.054  14.160 -45.526  0.00  0.00    +0.000 NA
ATOM     24  N22 6ZV A 900     -54.889  11.985 -44.876  0.00  0.00    +0.000 N 
ATOM     25  F29 6ZV A 900     -54.115  14.895 -48.226  0.00  0.00    +0.000 F 
BRANCH  24  28
ATOM     26  C27 6ZV A 900     -55.932   9.750 -44.627  0.00  0.00    +0.000 C 
ATOM     27  C28 6ZV A 900     -53.579  10.300 -43.697  0.00  0.00    +0.000 C 
ATOM     28  C26 6ZV A 900     -54.999  10.792 -43.992  0.00  0.00    +0.000 C 
ENDBRANCH  24  28
ENDBRANCH   2  17
BRANCH   8  29
ATOM     29  C14 6ZV A 900     -54.432   3.298 -44.305  0.00  0.00    +0.000 C 
BRANCH  29  35
ATOM     30  N2  6ZV A 900     -58.515   2.250 -43.564  0.00  0.00    +0.000 NA
ATOM     31  C31 6ZV A 900     -56.179   1.637 -43.976  0.00  0.00    +0.000 C 
ATOM     32  C35 6ZV A 900     -56.691   3.941 -43.828  0.00  0.00    +0.000 C 
ATOM     33  C32 6ZV A 900     -57.637   1.306 -44.276  0.00  0.00    +0.000 C 
ATOM     34  C34 6ZV A 900     -58.190   3.628 -43.970  0.00  0.00    +0.000 C 
ATOM     35  N30 6ZV A 900     -55.864   2.965 -44.552  0.00  0.00    +0.000 NA
BRANCH  30  36
ATOM     36  C1  6ZV A 900     -58.151   2.171 -42.124  0.00  0.00    +0.000 C 
ATOM     37  C3  6ZV A 900     -59.452   2.288 -41.349  0.00  0.00    +0.000 C 
ENDBRANCH  30  36
ENDBRANCH  29  35
ENDBRANCH   8  29
TORSDOF 5
