REMARK  Name = ligand_pdbs\77T.pdb
REMARK  2 active torsions:
REMARK  status: ('A' for Active; 'I' for Inactive)
REMARK    1  A    between atoms: C10_5  and  N4_9
REMARK    2  A    between atoms: C13_6  and  C14_13
REMARK                            x       y       z     vdW  Elec       q    Type
REMARK                         _______ _______ _______ _____ _____    ______ ____
ROOT
ATOM      1  C10 77T A1002      26.333   3.114   4.328  0.00  0.00    +0.000 A 
ATOM      2  C13 77T A1002      25.302   5.725   4.217  0.00  0.00    +0.000 A 
ATOM      3  C11 77T A1002      27.155   4.218   4.061  0.00  0.00    +0.000 A 
ATOM      4  C12 77T A1002      26.664   5.492   4.012  0.00  0.00    +0.000 A 
ATOM      5  C16 77T A1002      24.419   4.647   4.486  0.00  0.00    +0.000 A 
ATOM      6  F17 77T A1002      23.084   4.875   4.684  0.00  0.00    +0.000 F 
ATOM      7  C18 77T A1002      24.932   3.341   4.540  0.00  0.00    +0.000 A 
ATOM      8  C19 77T A1002      23.911   2.268   4.835  0.00  0.00    +0.000 C 
ENDROOT
BRANCH   1  15
ATOM      9  C5  77T A1002      28.318   1.912   5.152  0.00  0.00    +0.000 C 
ATOM     10  C6  77T A1002      28.487   0.457   5.671  0.00  0.00    +0.000 C 
ATOM     11  C7  77T A1002      27.573  -0.373   4.738  0.00  0.00    +0.000 C 
ATOM     12  C8  77T A1002      27.042  -1.661   5.374  0.00  0.00    +0.000 C 
ATOM     13  C1  77T A1002      25.636   0.151   3.271  0.00  0.00    +0.000 C 
ATOM     14  C2  77T A1002      26.407   0.591   4.512  0.00  0.00    +0.000 C 
ATOM     15  N4  77T A1002      27.064   1.897   4.330  0.00  0.00    +0.000 N 
ATOM     16  O9  77T A1002      28.273  -0.671   3.530  0.00  0.00    +0.000 OA
ENDBRANCH   1  15
BRANCH   2  17
ATOM     17  C14 77T A1002      24.891   7.090   4.131  0.00  0.00    +0.000 C 
ATOM     18  N15 77T A1002      24.545   8.167   4.072  0.00  0.00    +0.000 NA
ENDBRANCH   2  17
TORSDOF 2
