REMARK  Name = ligand_pdbs\77U.pdb
REMARK  2 active torsions:
REMARK  status: ('A' for Active; 'I' for Inactive)
REMARK    1  A    between atoms: C10_4  and  N9_9
REMARK    2  A    between atoms: C13_5  and  C14_12
REMARK                            x       y       z     vdW  Elec       q    Type
REMARK                         _______ _______ _______ _____ _____    ______ ____
ROOT
ATOM      1  C10 77U A1003      26.652   2.486   4.241  0.00  0.00    +0.000 A 
ATOM      2  C13 77U A1003      25.756   5.126   4.125  0.00  0.00    +0.000 A 
ATOM      3  C11 77U A1003      27.553   3.541   4.031  0.00  0.00    +0.000 A 
ATOM      4  C12 77U A1003      27.122   4.847   3.970  0.00  0.00    +0.000 A 
ATOM      5  C16 77U A1003      24.839   4.075   4.334  0.00  0.00    +0.000 A 
ATOM      6 CL1  77U A1003      23.140   4.397   4.522  0.00  0.00    +0.000 Cl
ATOM      7  C18 77U A1003      25.282   2.769   4.396  0.00  0.00    +0.000 A 
ATOM      8  C19 77U A1003      24.258   1.686   4.637  0.00  0.00    +0.000 C 
ENDROOT
BRANCH   1  15
ATOM      9  C4  77U A1003      28.894  -0.317   3.555  0.00  0.00    +0.000 C 
ATOM     10  C7  77U A1003      27.509  -0.934   3.274  0.00  0.00    +0.000 C 
ATOM     11  C8  77U A1003      26.614   0.312   3.209  0.00  0.00    +0.000 C 
ATOM     12  C1  77U A1003      29.125   0.999   5.762  0.00  0.00    +0.000 C 
ATOM     13  C2  77U A1003      28.611   1.010   4.319  0.00  0.00    +0.000 C 
ATOM     14  O6  77U A1003      29.690  -1.243   4.301  0.00  0.00    +0.000 OA
ATOM     15  N9  77U A1003      27.122   1.167   4.317  0.00  0.00    +0.000 N 
ENDBRANCH   1  15
BRANCH   2  16
ATOM     16  C14 77U A1003      25.303   6.484   4.052  0.00  0.00    +0.000 C 
ATOM     17  N15 77U A1003      25.036   7.590   3.982  0.00  0.00    +0.000 NA
ENDBRANCH   2  16
TORSDOF 2
