REMARK  Name = ligand_pdbs\81X.pdb
REMARK  2 active torsions:
REMARK  status: ('A' for Active; 'I' for Inactive)
REMARK    1  A    between atoms: C5_2  and  C6_3
REMARK    2  A    between atoms: C6_3  and  N7_12
REMARK                            x       y       z     vdW  Elec       q    Type
REMARK                         _______ _______ _______ _____ _____    ______ ____
ROOT
ATOM      1  N3  81X A 704     -26.484 -42.043 -10.687  0.00  0.00    +0.000 N 
ATOM      2  C5  81X A 704     -28.567 -43.035 -10.118  0.00  0.00    +0.000 A 
ATOM      3  C8  81X A 704     -28.018 -44.380 -10.405  0.00  0.00    +0.000 A 
ATOM      4  C10 81X A 704     -28.200 -46.793 -10.553  0.00  0.00    +0.000 A 
ATOM      5  C13 81X A 704     -26.643 -44.470 -10.842  0.00  0.00    +0.000 A 
ATOM      6  C11 81X A 704     -26.870 -46.878 -10.977  0.00  0.00    +0.000 A 
ATOM      7  C12 81X A 704     -26.091 -45.737 -11.123  0.00  0.00    +0.000 A 
ATOM      8  C2  81X A 704     -25.867 -43.214 -10.978  0.00  0.00    +0.000 A 
ATOM      9  C9  81X A 704     -28.774 -45.571 -10.270  0.00  0.00    +0.000 A 
ATOM     10  N4  81X A 704     -27.814 -41.978 -10.266  0.00  0.00    +0.000 NA
ATOM     11  O1  81X A 704     -24.706 -43.205 -11.343  0.00  0.00    +0.000 OA
ATOM     12  H3  81X A 704     -25.966 -41.191 -10.776  0.00  0.00    +0.000 HD
ENDROOT
BRANCH   2  13
ATOM     13  C6  81X A 704     -29.980 -42.819  -9.658  0.00  0.00    +0.000 C 
BRANCH  13  14
ATOM     14  N7  81X A 704     -30.229 -41.394  -9.688  0.00  0.00    +0.000 N 
ATOM     15  H73 81X A 704     -29.594 -40.932  -9.067  0.00  0.00    +0.000 HD
ATOM     16  H72 81X A 704     -31.170 -41.214  -9.400  0.00  0.00    +0.000 HD
ATOM     17  H71 81X A 704     -30.093 -41.052 -10.619  0.00  0.00    +0.000 HD
ENDBRANCH  13  14
ENDBRANCH   2  13
TORSDOF 2
