REMARK  Name = ligand_pdbs\84W.pdb
REMARK  4 active torsions:
REMARK  status: ('A' for Active; 'I' for Inactive)
REMARK    1  A    between atoms: C4_1  and  C7_3
REMARK    2  A    between atoms: C15_6  and  C16_13
REMARK    3  A    between atoms: C1_7  and  N2_10
REMARK    4  A    between atoms: C16_13  and  N17_18
REMARK                            x       y       z     vdW  Elec       q    Type
REMARK                         _______ _______ _______ _____ _____    ______ ____
ROOT
ATOM      1  C7  84W A 702     -30.745 -46.550 -10.234  0.00  0.00    +0.000 A 
ATOM      2  C8  84W A 702     -29.446 -46.743 -10.678  0.00  0.00    +0.000 A 
ATOM      3  C10 84W A 702     -29.119 -44.319 -10.711  0.00  0.00    +0.000 A 
ATOM      4  C15 84W A 702     -30.871 -42.836 -10.074  0.00  0.00    +0.000 A 
ATOM      5  C9  84W A 702     -28.626 -45.649 -10.917  0.00  0.00    +0.000 A 
ATOM      6  C11 84W A 702     -28.294 -43.200 -10.950  0.00  0.00    +0.000 A 
ATOM      7  C18 84W A 702     -30.375 -44.138 -10.284  0.00  0.00    +0.000 A 
ATOM      8  C19 84W A 702     -31.216 -45.267 -10.035  0.00  0.00    +0.000 A 
ATOM      9  N13 84W A 702     -28.770 -41.961 -10.752  0.00  0.00    +0.000 N 
ATOM     10  N14 84W A 702     -30.088 -41.772 -10.305  0.00  0.00    +0.000 NA
ATOM     11  O12 84W A 702     -26.981 -43.381 -11.395  0.00  0.00    +0.000 OA
ATOM     12 H131 84W A 702     -28.183 -41.169 -10.923  0.00  0.00    +0.000 HD
ENDROOT
BRANCH   1  13
ATOM     13  C4  84W A 702     -31.675 -47.733  -9.964  0.00  0.00    +0.000 A 
ATOM     14  C5  84W A 702     -33.032 -47.729 -10.129  0.00  0.00    +0.000 A 
ATOM     15  C1  84W A 702     -32.482 -51.090  -8.967  0.00  0.00    +0.000 C 
ATOM     16  C3  84W A 702     -31.310 -48.971  -9.513  0.00  0.00    +0.000 A 
ATOM     17  N2  84W A 702     -32.411 -49.710  -9.407  0.00  0.00    +0.000 N 
ATOM     18  N6  84W A 702     -33.492 -48.930  -9.793  0.00  0.00    +0.000 NA
ENDBRANCH   1  13
BRANCH   4  19
ATOM     19  C16 84W A 702     -32.303 -42.643  -9.590  0.00  0.00    +0.000 C 
BRANCH  19  20
ATOM     20  N17 84W A 702     -32.777 -41.343 -10.023  0.00  0.00    +0.000 N 
ATOM     21 H171 84W A 702     -32.209 -40.625  -9.609  0.00  0.00    +0.000 HD
ATOM     22 H173 84W A 702     -33.733 -41.222  -9.734  0.00  0.00    +0.000 HD
ATOM     23 H172 84W A 702     -32.719 -41.281 -11.024  0.00  0.00    +0.000 HD
ENDBRANCH  19  20
ENDBRANCH   4  19
TORSDOF 3
