REMARK  Name = ligand_pdbs\85E.pdb
REMARK  6 active torsions:
REMARK  status: ('A' for Active; 'I' for Inactive)
REMARK    1  A    between atoms: N1_1  and  C1C_18
REMARK    2  A    between atoms: C18_14  and  C19_15
REMARK    3  A    between atoms: C1A_16  and  C1B_17
REMARK    4  A    between atoms: C1E_20  and  C1F_21
REMARK    5  A    between atoms: C1K_25  and  C1M_27
REMARK    6  A    between atoms: C1M_27  and  N13_30
REMARK                            x       y       z     vdW  Elec       q    Type
REMARK                         _______ _______ _______ _____ _____    ______ ____
ROOT
ATOM      1  N1  85E A 702     -32.438 -50.036  -9.378  0.00  0.00    +0.000 N 
ATOM      2  N12 85E A 702     -33.564 -49.366  -9.695  0.00  0.00    +0.000 NA
ATOM      3  C1B 85E A 702     -31.305 -49.317  -9.543  0.00  0.00    +0.000 A 
ATOM      4  C1C 85E A 702     -32.517 -51.400  -8.877  0.00  0.00    +0.000 C 
ATOM      5  C1D 85E A 702     -33.125 -48.194 -10.081  0.00  0.00    +0.000 A 
ATOM      6  C1E 85E A 702     -31.721 -48.101 -10.031  0.00  0.00    +0.000 A 
ENDROOT
BRANCH   6   8
ATOM      7  O   85E A 702     -27.380 -43.375 -11.341  0.00  0.00    +0.000 OA
ATOM      8  C1F 85E A 702     -30.891 -46.911 -10.324  0.00  0.00    +0.000 A 
ATOM      9  C1G 85E A 702     -29.547 -47.011 -10.733  0.00  0.00    +0.000 A 
ATOM     10  C1H 85E A 702     -28.784 -45.881 -10.957  0.00  0.00    +0.000 A 
ATOM     11  C1I 85E A 702     -31.421 -45.636 -10.105  0.00  0.00    +0.000 A 
ATOM     12  C1K 85E A 702     -31.199 -43.110 -10.094  0.00  0.00    +0.000 A 
ATOM     13  C1L 85E A 702     -30.671 -44.462 -10.315  0.00  0.00    +0.000 A 
ATOM     14  C1N 85E A 702     -29.336 -44.607 -10.756  0.00  0.00    +0.000 A 
ATOM     15  C1O 85E A 702     -28.554 -43.412 -10.973  0.00  0.00    +0.000 A 
ATOM     16  N14 85E A 702     -30.467 -42.062 -10.300  0.00  0.00    +0.000 NA
ATOM     17  N15 85E A 702     -29.161 -42.201 -10.755  0.00  0.00    +0.000 N 
ATOM     18 H129 85E A 702     -28.608 -41.388 -10.942  0.00  0.00    +0.000 HD
BRANCH  12  19
ATOM     19  C1M 85E A 702     -32.649 -42.911  -9.619  0.00  0.00    +0.000 C 
BRANCH  19  20
ATOM     20  N13 85E A 702     -33.073 -41.511  -9.770  0.00  0.00    +0.000 N 
ATOM     21 H212 85E A 702     -32.477 -40.921  -9.223  0.00  0.00    +0.000 HD
ATOM     22  H31 85E A 702     -34.018 -41.413  -9.457  0.00  0.00    +0.000 HD
ATOM     23 H113 85E A 702     -33.011 -41.246 -10.733  0.00  0.00    +0.000 HD
ENDBRANCH  19  20
ENDBRANCH  12  19
ENDBRANCH   6   8
BRANCH   3  34
ATOM     24  C13 85E A 702     -26.523 -51.900  -7.877  0.00  0.00    +0.000 A 
ATOM     25  C15 85E A 702     -26.004 -52.445 -10.167  0.00  0.00    +0.000 A 
ATOM     26  C17 85E A 702     -28.025 -51.194  -9.664  0.00  0.00    +0.000 A 
ATOM     27  C   85E A 702     -29.703 -50.015  -7.813  0.00  0.00    +0.000 A 
ATOM     28  C1  85E A 702     -28.574 -50.638  -7.360  0.00  0.00    +0.000 A 
ATOM     29  F   85E A 702     -30.541 -49.437  -6.878  0.00  0.00    +0.000 F 
ATOM     30  C12 85E A 702     -27.702 -51.236  -8.290  0.00  0.00    +0.000 A 
ATOM     31  C14 85E A 702     -25.680 -52.482  -8.797  0.00  0.00    +0.000 A 
ATOM     32  C16 85E A 702     -27.144 -51.813 -10.590  0.00  0.00    +0.000 A 
ATOM     33  C18 85E A 702     -29.218 -50.551 -10.087  0.00  0.00    +0.000 A 
ATOM     34  C1A 85E A 702     -30.055 -49.946  -9.187  0.00  0.00    +0.000 A 
BRANCH  33  36
ATOM     35  N   85E A 702     -29.813 -50.467 -12.583  0.00  0.00    +0.000 NA
ATOM     36  C19 85E A 702     -29.531 -50.506 -11.484  0.00  0.00    +0.000 C 
ENDBRANCH  33  36
ENDBRANCH   3  34
TORSDOF 5
