REMARK  Name = ligand_pdbs\85K.pdb
REMARK  8 active torsions:
REMARK  status: ('A' for Active; 'I' for Inactive)
REMARK    1  A    between atoms: N12_2  and  C19_14
REMARK    2  A    between atoms: C13_3  and  C12_10
REMARK    3  A    between atoms: N_6  and  C_7
REMARK    4  A    between atoms: C18_13  and  C19_14
REMARK    5  A    between atoms: C1C_17  and  C1D_18
REMARK    6  A    between atoms: C1H_22  and  O1_32
REMARK    7  A    between atoms: C1I_23  and  O1_32
REMARK    8  A    between atoms: C1M_26  and  C1N_27
REMARK                            x       y       z     vdW  Elec       q    Type
REMARK                         _______ _______ _______ _____ _____    ______ ____
ROOT
ATOM      1  N1  85K A 702     -33.518 -49.338  -9.679  0.00  0.00    +0.000 NA
ATOM      2  N   85K A 702     -32.372 -49.937  -9.312  0.00  0.00    +0.000 N 
ATOM      3  C   85K A 702     -32.203 -51.302  -8.869  0.00  0.00    +0.000 C 
ATOM      4  C1  85K A 702     -33.138 -48.125 -10.006  0.00  0.00    +0.000 A 
ATOM      5  C12 85K A 702     -31.757 -47.940  -9.859  0.00  0.00    +0.000 A 
ATOM      6  C1C 85K A 702     -31.293 -49.142  -9.413  0.00  0.00    +0.000 A 
ENDROOT
BRANCH   5   7
ATOM      7  C13 85K A 702     -30.944 -46.749 -10.109  0.00  0.00    +0.000 A 
ATOM      8  C15 85K A 702     -28.820 -45.765 -10.748  0.00  0.00    +0.000 A 
ATOM      9  C17 85K A 702     -30.688 -44.307 -10.176  0.00  0.00    +0.000 A 
ATOM     10  O   85K A 702     -27.364 -43.271 -11.176  0.00  0.00    +0.000 OA
ATOM     11  C14 85K A 702     -29.602 -46.878 -10.516  0.00  0.00    +0.000 A 
ATOM     12  C16 85K A 702     -31.464 -45.466  -9.945  0.00  0.00    +0.000 A 
ATOM     13  C18 85K A 702     -31.203 -42.953 -10.014  0.00  0.00    +0.000 A 
ATOM     14  C1A 85K A 702     -29.347 -44.474 -10.585  0.00  0.00    +0.000 A 
ATOM     15  C1B 85K A 702     -28.540 -43.300 -10.821  0.00  0.00    +0.000 A 
ATOM     16  N13 85K A 702     -30.449 -41.922 -10.239  0.00  0.00    +0.000 NA
ATOM     17  N14 85K A 702     -29.140 -42.085 -10.635  0.00  0.00    +0.000 N 
ATOM     18 H125 85K A 702     -28.567 -41.282 -10.806  0.00  0.00    +0.000 HD
BRANCH  13  19
ATOM     19  C19 85K A 702     -32.656 -42.702  -9.568  0.00  0.00    +0.000 C 
BRANCH  19  20
ATOM     20  N12 85K A 702     -33.088 -41.356  -9.989  0.00  0.00    +0.000 N 
ATOM     21  H31 85K A 702     -34.049 -41.222  -9.742  0.00  0.00    +0.000 HD
ATOM     22 H212 85K A 702     -32.983 -41.267 -10.980  0.00  0.00    +0.000 HD
ATOM     23 H112 85K A 702     -32.526 -40.666  -9.530  0.00  0.00    +0.000 HD
ENDBRANCH  19  20
ENDBRANCH  13  19
ENDBRANCH   5   7
BRANCH   6  24
ATOM     24  C1D 85K A 702     -29.998 -49.670  -9.034  0.00  0.00    +0.000 A 
ATOM     25  C1E 85K A 702     -29.638 -49.635  -7.683  0.00  0.00    +0.000 A 
ATOM     26  C1F 85K A 702     -28.425 -50.134  -7.219  0.00  0.00    +0.000 A 
ATOM     27  C1G 85K A 702     -27.549 -50.718  -8.127  0.00  0.00    +0.000 A 
ATOM     28  C1H 85K A 702     -27.904 -50.792  -9.472  0.00  0.00    +0.000 A 
ATOM     29  C1M 85K A 702     -29.124 -50.291  -9.947  0.00  0.00    +0.000 A 
ATOM     30  F   85K A 702     -30.490 -49.065  -6.798  0.00  0.00    +0.000 F 
ATOM     31 CL   85K A 702     -27.995 -50.041  -5.546  0.00  0.00    +0.000 Cl
BRANCH  29  32
ATOM     32  C1N 85K A 702     -29.461 -50.377 -11.341  0.00  0.00    +0.000 C 
ATOM     33  N15 85K A 702     -29.719 -50.449 -12.449  0.00  0.00    +0.000 NA
ENDBRANCH  29  32
BRANCH  28  34
ATOM     34  O1  85K A 702     -27.036 -51.371 -10.374  0.00  0.00    +0.000 OA
BRANCH  34  35
ATOM     35  C1I 85K A 702     -25.604 -51.443 -10.235  0.00  0.00    +0.000 C 
ATOM     36  C1K 85K A 702     -25.009 -52.817 -10.268  0.00  0.00    +0.000 C 
ATOM     37  C1L 85K A 702     -24.926 -51.922 -11.484  0.00  0.00    +0.000 C 
ENDBRANCH  34  35
ENDBRANCH  28  34
ENDBRANCH   6  24
TORSDOF 7
