REMARK  Name = ligand_pdbs\8NH.pdb
REMARK  2 active torsions:
REMARK  status: ('A' for Active; 'I' for Inactive)
REMARK    1  A    between atoms: C4_4  and  N12_10
REMARK    2  A    between atoms: C9_7  and  C10_8
REMARK                            x       y       z     vdW  Elec       q    Type
REMARK                         _______ _______ _______ _____ _____    ______ ____
ROOT
ATOM      1  N12 8NH A   1      27.362   1.787   4.266  0.00  0.00    +0.000 N 
ATOM      2  C13 8NH A   1      27.136   0.860   3.306  0.00  0.00    +0.000 C 
ATOM      3  N14 8NH A   1      27.589  -0.311   3.743  0.00  0.00    +0.000 N 
ATOM      4  C15 8NH A   1      28.321  -0.187   4.971  0.00  0.00    +0.000 C 
ATOM      5  C17 8NH A   1      29.702  -0.430   4.416  0.00  0.00    +0.000 C 
ATOM      6  C19 8NH A   1      29.512  -1.510   3.332  0.00  0.00    +0.000 C 
ATOM      7  C22 8NH A   1      28.041  -1.392   2.924  0.00  0.00    +0.000 C 
ATOM      8  O25 8NH A   1      30.060   0.820   3.830  0.00  0.00    +0.000 OA
ATOM      9  C27 8NH A   1      28.209   1.332   5.192  0.00  0.00    +0.000 C 
ATOM     10  O28 8NH A   1      28.814   1.989   6.040  0.00  0.00    +0.000 OA
ATOM     11  O29 8NH A   1      26.628   1.084   2.206  0.00  0.00    +0.000 OA
ENDROOT
BRANCH   1  15
ATOM     12 CL1  8NH A   1      23.517   5.263   4.399  0.00  0.00    +0.000 Cl
ATOM     13  C2  8NH A   1      25.270   4.792   4.318  0.00  0.00    +0.000 A 
ATOM     14  C3  8NH A   1      25.630   3.427   4.408  0.00  0.00    +0.000 A 
ATOM     15  C4  8NH A   1      26.974   3.066   4.228  0.00  0.00    +0.000 A 
ATOM     16  C5  8NH A   1      27.991   4.009   4.030  0.00  0.00    +0.000 A 
ATOM     17  C7  8NH A   1      27.651   5.353   4.052  0.00  0.00    +0.000 A 
ATOM     18  C9  8NH A   1      26.301   5.754   4.135  0.00  0.00    +0.000 A 
ATOM     19  C30 8NH A   1      24.618   2.382   4.712  0.00  0.00    +0.000 C 
BRANCH  18  20
ATOM     20  C10 8NH A   1      26.064   7.135   3.886  0.00  0.00    +0.000 C 
ATOM     21  N11 8NH A   1      25.875   8.229   3.575  0.00  0.00    +0.000 NA
ENDBRANCH  18  20
ENDBRANCH   1  15
TORSDOF 2
