REMARK  Name = ligand_pdbs\97A.pdb
REMARK  4 active torsions:
REMARK  status: ('A' for Active; 'I' for Inactive)
REMARK    1  A    between atoms: C2_13  and  C2_14
REMARK    2  A    between atoms: C2_13  and  C3_16
REMARK    3  A    between atoms: C3_16  and  N11_23
REMARK    4  A    between atoms: C9_20  and  N11_23
REMARK                            x       y       z     vdW  Elec       q    Type
REMARK                         _______ _______ _______ _____ _____    ______ ____
ROOT
ATOM      1  C5  97A A1004      29.474  -0.564   3.251  0.00  0.00    +0.000 C 
ATOM      2  C8  97A A1004      28.142  -1.274   3.587  0.00  0.00    +0.000 C 
ATOM      3  C8  97A A1004      28.175  -1.068   3.241  0.00  0.00    +0.000 C 
ENDROOT
TORSDOF 0
REMARK  Name = ligand_pdbs\97A.pdb
REMARK  4 active torsions:
REMARK  status: ('A' for Active; 'I' for Inactive)
REMARK    1  A    between atoms: C2_13  and  C2_14
REMARK    2  A    between atoms: C2_13  and  C3_16
REMARK    3  A    between atoms: C3_16  and  N11_23
REMARK    4  A    between atoms: C9_20  and  N11_23
REMARK                            x       y       z     vdW  Elec       q    Type
REMARK                         _______ _______ _______ _____ _____    ______ ____
ROOT
ATOM      1  C5  97A A1004      29.570  -0.408   3.355  0.00  0.00    +0.000 C 
ATOM      2  C3  97A A1004      29.307   0.743   4.064  0.00  0.00    +0.000 C 
ATOM      3  O7  97A A1004      30.579  -1.363   3.678  0.00  0.00    +0.000 OA
ENDROOT
TORSDOF 0
REMARK  Name = ligand_pdbs\97A.pdb
REMARK  4 active torsions:
REMARK  status: ('A' for Active; 'I' for Inactive)
REMARK    1  A    between atoms: C2_13  and  C2_14
REMARK    2  A    between atoms: C2_13  and  C3_16
REMARK    3  A    between atoms: C3_16  and  N11_23
REMARK    4  A    between atoms: C9_20  and  N11_23
REMARK                            x       y       z     vdW  Elec       q    Type
REMARK                         _______ _______ _______ _____ _____    ______ ____
ROOT
ATOM      1  C13 97A A1004      28.035   3.441   3.863  0.00  0.00    +0.000 C 
ATOM      2  C12 97A A1004      27.267   2.437   4.041  0.00  0.00    +0.000 C 
ENDROOT
TORSDOF 0
REMARK  Name = ligand_pdbs\97A.pdb
REMARK  4 active torsions:
REMARK  status: ('A' for Active; 'I' for Inactive)
REMARK    1  A    between atoms: C2_13  and  C2_14
REMARK    2  A    between atoms: C2_13  and  C3_16
REMARK    3  A    between atoms: C3_16  and  N11_23
REMARK    4  A    between atoms: C9_20  and  N11_23
REMARK                            x       y       z     vdW  Elec       q    Type
REMARK                         _______ _______ _______ _____ _____    ______ ____
ROOT
ATOM      1  C13 97A A1004      28.049   3.589   3.966  0.00  0.00    +0.000 C 
ATOM      2  C14 97A A1004      27.457   4.690   3.933  0.00  0.00    +0.000 C 
ENDROOT
TORSDOF 0
REMARK  Name = ligand_pdbs\97A.pdb
REMARK  4 active torsions:
REMARK  status: ('A' for Active; 'I' for Inactive)
REMARK    1  A    between atoms: C2_13  and  C2_14
REMARK    2  A    between atoms: C2_13  and  C3_16
REMARK    3  A    between atoms: C3_16  and  N11_23
REMARK    4  A    between atoms: C9_20  and  N11_23
REMARK                            x       y       z     vdW  Elec       q    Type
REMARK                         _______ _______ _______ _____ _____    ______ ____
ROOT
ATOM      1  C15 97A A1004      26.087   4.826   4.200  0.00  0.00    +0.000 C 
ATOM      2  C14 97A A1004      27.470   4.830   4.107  0.00  0.00    +0.000 C 
ATOM      3  C18 97A A1004      25.297   3.782   4.389  0.00  0.00    +0.000 C 
ENDROOT
TORSDOF 0
REMARK  Name = ligand_pdbs\97A.pdb
REMARK  4 active torsions:
REMARK  status: ('A' for Active; 'I' for Inactive)
REMARK    1  A    between atoms: C2_13  and  C2_14
REMARK    2  A    between atoms: C2_13  and  C3_16
REMARK    3  A    between atoms: C3_16  and  N11_23
REMARK    4  A    between atoms: C9_20  and  N11_23
REMARK                            x       y       z     vdW  Elec       q    Type
REMARK                         _______ _______ _______ _____ _____    ______ ____
ROOT
ATOM      1  C15 97A A1004      26.087   4.939   4.315  0.00  0.00    +0.000 C 
ENDROOT
TORSDOF 0
REMARK  Name = ligand_pdbs\97A.pdb
REMARK  4 active torsions:
REMARK  status: ('A' for Active; 'I' for Inactive)
REMARK    1  A    between atoms: C2_13  and  C2_14
REMARK    2  A    between atoms: C2_13  and  C3_16
REMARK    3  A    between atoms: C3_16  and  N11_23
REMARK    4  A    between atoms: C9_20  and  N11_23
REMARK                            x       y       z     vdW  Elec       q    Type
REMARK                         _______ _______ _______ _____ _____    ______ ____
ROOT
ATOM      1  C20 97A A1004      23.828   3.734   4.717  0.00  0.00    +0.000 C 
ATOM      2  F21 97A A1004      23.276   2.565   4.489  0.00  0.00    +0.000 F 
ENDROOT
TORSDOF 0
REMARK  Name = ligand_pdbs\97A.pdb
REMARK  4 active torsions:
REMARK  status: ('A' for Active; 'I' for Inactive)
REMARK    1  A    between atoms: C2_13  and  C2_14
REMARK    2  A    between atoms: C2_13  and  C3_16
REMARK    3  A    between atoms: C3_16  and  N11_23
REMARK    4  A    between atoms: C9_20  and  N11_23
REMARK                            x       y       z     vdW  Elec       q    Type
REMARK                         _______ _______ _______ _____ _____    ______ ____
ROOT
ATOM      1  C20 97A A1004      23.807   3.837   4.630  0.00  0.00    +0.000 C 
ENDROOT
TORSDOF 0
REMARK  Name = ligand_pdbs\97A.pdb
REMARK  4 active torsions:
REMARK  status: ('A' for Active; 'I' for Inactive)
REMARK    1  A    between atoms: C2_13  and  C2_14
REMARK    2  A    between atoms: C2_13  and  C3_16
REMARK    3  A    between atoms: C3_16  and  N11_23
REMARK    4  A    between atoms: C9_20  and  N11_23
REMARK                            x       y       z     vdW  Elec       q    Type
REMARK                         _______ _______ _______ _____ _____    ______ ____
ROOT
ATOM      1  C3  97A A1004      29.247   0.836   4.219  0.00  0.00    +0.000 C 
ENDROOT
BRANCH   1   3
ATOM      2  C1  97A A1004      30.769   0.899   6.174  0.00  0.00    +0.000 C 
ATOM      3  C2  97A A1004      29.760   0.522   5.512  0.00  0.00    +0.000 C 
BRANCH   3   5
ATOM      4  C1  97A A1004      29.293   1.683   6.391  0.00  0.00    +0.000 C 
ATOM      5  C2  97A A1004      29.373   0.495   5.704  0.00  0.00    +0.000 C 
ENDBRANCH   3   5
ENDBRANCH   1   3
BRANCH   1   6
ATOM      6  N11 97A A1004      27.863   1.029   3.969  0.00  0.00    +0.000 NA
BRANCH   6   8
ATOM      7  C9  97A A1004      27.187  -0.107   3.677  0.00  0.00    +0.000 C 
ATOM      8  C9  97A A1004      27.244   0.122   3.305  0.00  0.00    +0.000 C 
ATOM      9  O10 97A A1004      25.990  -0.204   3.519  0.00  0.00    +0.000 OA
ATOM     10  O10 97A A1004      26.102   0.115   2.910  0.00  0.00    +0.000 OA
ENDBRANCH   6   8
ENDBRANCH   1   6
TORSDOF 4
REMARK  Name = ligand_pdbs\97A.pdb
REMARK  4 active torsions:
REMARK  status: ('A' for Active; 'I' for Inactive)
REMARK    1  A    between atoms: C2_13  and  C2_14
REMARK    2  A    between atoms: C2_13  and  C3_16
REMARK    3  A    between atoms: C3_16  and  N11_23
REMARK    4  A    between atoms: C9_20  and  N11_23
REMARK                            x       y       z     vdW  Elec       q    Type
REMARK                         _______ _______ _______ _____ _____    ______ ____
ROOT
ATOM      1  O7  97A A1004      30.486  -1.295   3.999  0.00  0.00    +0.000 OA
ENDROOT
TORSDOF 0
REMARK  Name = ligand_pdbs\97A.pdb
REMARK  4 active torsions:
REMARK  status: ('A' for Active; 'I' for Inactive)
REMARK    1  A    between atoms: C2_13  and  C2_14
REMARK    2  A    between atoms: C2_13  and  C3_16
REMARK    3  A    between atoms: C3_16  and  N11_23
REMARK    4  A    between atoms: C9_20  and  N11_23
REMARK                            x       y       z     vdW  Elec       q    Type
REMARK                         _______ _______ _______ _____ _____    ______ ____
ROOT
ATOM      1  N11 97A A1004      27.862   1.178   3.872  0.00  0.00    +0.000 NA
ATOM      2  C12 97A A1004      27.267   2.298   4.074  0.00  0.00    +0.000 C 
ATOM      3  C19 97A A1004      25.906   2.432   4.339  0.00  0.00    +0.000 C 
ENDROOT
TORSDOF 0
REMARK  Name = ligand_pdbs\97A.pdb
REMARK  4 active torsions:
REMARK  status: ('A' for Active; 'I' for Inactive)
REMARK    1  A    between atoms: C2_13  and  C2_14
REMARK    2  A    between atoms: C2_13  and  C3_16
REMARK    3  A    between atoms: C3_16  and  N11_23
REMARK    4  A    between atoms: C9_20  and  N11_23
REMARK                            x       y       z     vdW  Elec       q    Type
REMARK                         _______ _______ _______ _____ _____    ______ ____
ROOT
ATOM      1  C16 97A A1004      25.537   6.149   4.257  0.00  0.00    +0.000 C 
ENDROOT
TORSDOF 0
REMARK  Name = ligand_pdbs\97A.pdb
REMARK  4 active torsions:
REMARK  status: ('A' for Active; 'I' for Inactive)
REMARK    1  A    between atoms: C2_13  and  C2_14
REMARK    2  A    between atoms: C2_13  and  C3_16
REMARK    3  A    between atoms: C3_16  and  N11_23
REMARK    4  A    between atoms: C9_20  and  N11_23
REMARK                            x       y       z     vdW  Elec       q    Type
REMARK                         _______ _______ _______ _____ _____    ______ ____
ROOT
ATOM      1  C16 97A A1004      25.515   6.245   4.457  0.00  0.00    +0.000 C 
ATOM      2  N17 97A A1004      25.114   7.205   4.299  0.00  0.00    +0.000 NA
ENDROOT
TORSDOF 0
REMARK  Name = ligand_pdbs\97A.pdb
REMARK  4 active torsions:
REMARK  status: ('A' for Active; 'I' for Inactive)
REMARK    1  A    between atoms: C2_13  and  C2_14
REMARK    2  A    between atoms: C2_13  and  C3_16
REMARK    3  A    between atoms: C3_16  and  N11_23
REMARK    4  A    between atoms: C9_20  and  N11_23
REMARK                            x       y       z     vdW  Elec       q    Type
REMARK                         _______ _______ _______ _____ _____    ______ ____
ROOT
ATOM      1  N17 97A A1004      25.089   7.294   4.565  0.00  0.00    +0.000 NA
ENDROOT
TORSDOF 0
REMARK  Name = ligand_pdbs\97A.pdb
REMARK  4 active torsions:
REMARK  status: ('A' for Active; 'I' for Inactive)
REMARK    1  A    between atoms: C2_13  and  C2_14
REMARK    2  A    between atoms: C2_13  and  C3_16
REMARK    3  A    between atoms: C3_16  and  N11_23
REMARK    4  A    between atoms: C9_20  and  N11_23
REMARK                            x       y       z     vdW  Elec       q    Type
REMARK                         _______ _______ _______ _____ _____    ______ ____
ROOT
ATOM      1  C18 97A A1004      25.306   3.677   4.406  0.00  0.00    +0.000 C 
ATOM      2  C19 97A A1004      25.896   2.546   4.251  0.00  0.00    +0.000 C 
ENDROOT
TORSDOF 0
REMARK  Name = ligand_pdbs\97A.pdb
REMARK  4 active torsions:
REMARK  status: ('A' for Active; 'I' for Inactive)
REMARK    1  A    between atoms: C2_13  and  C2_14
REMARK    2  A    between atoms: C2_13  and  C3_16
REMARK    3  A    between atoms: C3_16  and  N11_23
REMARK    4  A    between atoms: C9_20  and  N11_23
REMARK                            x       y       z     vdW  Elec       q    Type
REMARK                         _______ _______ _______ _____ _____    ______ ____
ROOT
ATOM      1  F21 97A A1004      23.200   2.633   4.151  0.00  0.00    +0.000 F 
ENDROOT
TORSDOF 0
REMARK  Name = ligand_pdbs\97A.pdb
REMARK  4 active torsions:
REMARK  status: ('A' for Active; 'I' for Inactive)
REMARK    1  A    between atoms: C2_13  and  C2_14
REMARK    2  A    between atoms: C2_13  and  C3_16
REMARK    3  A    between atoms: C3_16  and  N11_23
REMARK    4  A    between atoms: C9_20  and  N11_23
REMARK                            x       y       z     vdW  Elec       q    Type
REMARK                         _______ _______ _______ _____ _____    ______ ____
ROOT
ATOM      1  F22 97A A1004      23.640   3.682   6.097  0.00  0.00    +0.000 F 
ATOM      2  F22 97A A1004      23.543   4.253   5.931  0.00  0.00    +0.000 F 
ENDROOT
TORSDOF 0
REMARK  Name = ligand_pdbs\97A.pdb
REMARK  4 active torsions:
REMARK  status: ('A' for Active; 'I' for Inactive)
REMARK    1  A    between atoms: C2_13  and  C2_14
REMARK    2  A    between atoms: C2_13  and  C3_16
REMARK    3  A    between atoms: C3_16  and  N11_23
REMARK    4  A    between atoms: C9_20  and  N11_23
REMARK                            x       y       z     vdW  Elec       q    Type
REMARK                         _______ _______ _______ _____ _____    ______ ____
ROOT
ATOM      1  F23 97A A1004      23.218   4.885   4.229  0.00  0.00    +0.000 F 
ATOM      2  F23 97A A1004      23.166   4.700   3.748  0.00  0.00    +0.000 F 
ENDROOT
TORSDOF 0
