REMARK  Name = ligand_pdbs\97L.pdb
REMARK  6 active torsions:
REMARK  status: ('A' for Active; 'I' for Inactive)
REMARK    1  A    between atoms: N12_2  and  C19_15
REMARK    2  A    between atoms: C17_5  and  C19_15
REMARK    3  A    between atoms: C_7  and  C1_9
REMARK    4  A    between atoms: C1B_17  and  C1D_19
REMARK    5  A    between atoms: C1C_18  and  N14_29
REMARK    6  A    between atoms: C1E_20  and  C1M_27
REMARK                            x       y       z     vdW  Elec       q    Type
REMARK                         _______ _______ _______ _____ _____    ______ ____
ROOT
ATOM      1  C   97L A 801     -32.047 -48.025  -9.993  0.00  0.00    +0.000 A 
ATOM      2  C1A 97L A 801     -33.454 -48.109 -10.085  0.00  0.00    +0.000 A 
ATOM      3  C1B 97L A 801     -31.652 -49.258  -9.486  0.00  0.00    +0.000 A 
ATOM      4  C1C 97L A 801     -32.850 -51.344  -8.857  0.00  0.00    +0.000 C 
ATOM      5  N13 97L A 801     -33.907 -49.292  -9.700  0.00  0.00    +0.000 NA
ATOM      6  N14 97L A 801     -32.792 -49.980  -9.349  0.00  0.00    +0.000 N 
ENDROOT
BRANCH   1  13
ATOM      7  N1  97L A 801     -29.223 -42.190 -10.735  0.00  0.00    +0.000 N 
ATOM      8  C13 97L A 801     -30.824 -44.413 -10.298  0.00  0.00    +0.000 A 
ATOM      9  C15 97L A 801     -29.015 -45.901 -10.916  0.00  0.00    +0.000 A 
ATOM     10  C17 97L A 801     -31.294 -43.045 -10.090  0.00  0.00    +0.000 A 
ATOM     11  N   97L A 801     -30.526 -42.011 -10.303  0.00  0.00    +0.000 NA
ATOM     12  O   97L A 801     -27.462 -43.427 -11.335  0.00  0.00    +0.000 OA
ATOM     13  C1  97L A 801     -31.184 -46.856 -10.281  0.00  0.00    +0.000 A 
ATOM     14  C12 97L A 801     -31.648 -45.550 -10.083  0.00  0.00    +0.000 A 
ATOM     15  C14 97L A 801     -29.489 -44.593 -10.732  0.00  0.00    +0.000 A 
ATOM     16  C16 97L A 801     -29.837 -47.002 -10.695  0.00  0.00    +0.000 A 
ATOM     17  C18 97L A 801     -28.648 -43.425 -10.954  0.00  0.00    +0.000 A 
ATOM     18 H123 97L A 801     -28.641 -41.394 -10.905  0.00  0.00    +0.000 HD
BRANCH  10  19
ATOM     19  C19 97L A 801     -32.744 -42.846  -9.629  0.00  0.00    +0.000 C 
BRANCH  19  20
ATOM     20  N12 97L A 801     -33.102 -41.429  -9.614  0.00  0.00    +0.000 N 
ATOM     21  H21 97L A 801     -34.067 -41.331  -9.369  0.00  0.00    +0.000 HD
ATOM     22  H3  97L A 801     -32.946 -41.036 -10.522  0.00  0.00    +0.000 HD
ATOM     23 H112 97L A 801     -32.537 -40.949  -8.941  0.00  0.00    +0.000 HD
ENDBRANCH  19  20
ENDBRANCH  10  19
ENDBRANCH   1  13
BRANCH   3  25
ATOM     24  S   97L A 801     -29.833 -50.057  -7.499  0.00  0.00    +0.000 S 
ATOM     25  C1D 97L A 801     -30.380 -49.871  -9.147  0.00  0.00    +0.000 A 
ATOM     26  C1E 97L A 801     -29.471 -50.425 -10.014  0.00  0.00    +0.000 A 
ATOM     27  C1F 97L A 801     -28.336 -50.987  -9.369  0.00  0.00    +0.000 A 
ATOM     28  C1G 97L A 801     -28.392 -50.872  -7.995  0.00  0.00    +0.000 A 
ATOM     29  C1H 97L A 801     -27.214 -51.613  -9.954  0.00  0.00    +0.000 A 
ATOM     30  C1I 97L A 801     -26.198 -52.099  -9.162  0.00  0.00    +0.000 A 
ATOM     31  C1K 97L A 801     -27.367 -51.358  -7.185  0.00  0.00    +0.000 A 
ATOM     32  C1L 97L A 801     -26.282 -51.980  -7.774  0.00  0.00    +0.000 A 
BRANCH  26  33
ATOM     33  C1M 97L A 801     -29.617 -50.430 -11.437  0.00  0.00    +0.000 C 
ATOM     34  N15 97L A 801     -29.722 -50.445 -12.568  0.00  0.00    +0.000 NA
ENDBRANCH  26  33
ENDBRANCH   3  25
TORSDOF 5
