REMARK  Name = ligand_pdbs\97X.pdb
REMARK  4 active torsions:
REMARK  status: ('A' for Active; 'I' for Inactive)
REMARK    1  A    between atoms: C10_5  and  C11_13
REMARK    2  A    between atoms: C17_9  and  C16_14
REMARK    3  A    between atoms: C2_17  and  C3_21
REMARK    4  A    between atoms: C23_18  and  C29_20
REMARK                            x       y       z     vdW  Elec       q    Type
REMARK                         _______ _______ _______ _____ _____    ______ ____
ROOT
ATOM      1  N12 97X A 701     -33.148 -50.115  -9.285  0.00  0.00    +0.000 N 
ATOM      2  C13 97X A 701     -33.253 -51.485  -8.816  0.00  0.00    +0.000 C 
ATOM      3  C15 97X A 701     -33.670 -48.104 -10.072  0.00  0.00    +0.000 A 
ATOM      4  C11 97X A 701     -31.966 -49.377  -9.376  0.00  0.00    +0.000 A 
ATOM      5  C16 97X A 701     -32.272 -48.153  -9.857  0.00  0.00    +0.000 A 
ATOM      6  N14 97X A 701     -34.232 -49.316  -9.723  0.00  0.00    +0.000 NA
ENDROOT
BRANCH   5   7
ATOM      7  C17 97X A 701     -31.374 -46.947 -10.151  0.00  0.00    +0.000 A 
ATOM      8  C20 97X A 701     -29.862 -44.673 -10.668  0.00  0.00    +0.000 A 
ATOM      9  C21 97X A 701     -31.164 -44.527 -10.207  0.00  0.00    +0.000 A 
ATOM     10  C22 97X A 701     -31.904 -45.676  -9.956  0.00  0.00    +0.000 A 
ATOM     11  C18 97X A 701     -30.075 -47.055 -10.617  0.00  0.00    +0.000 A 
ATOM     12  C19 97X A 701     -29.310 -45.929 -10.874  0.00  0.00    +0.000 A 
ATOM     13  C23 97X A 701     -31.684 -43.194 -10.007  0.00  0.00    +0.000 C 
ATOM     14  C27 97X A 701     -29.044 -43.477 -10.941  0.00  0.00    +0.000 C 
ATOM     15  N24 97X A 701     -30.910 -42.089 -10.269  0.00  0.00    +0.000 NA
ATOM     16  N25 97X A 701     -29.589 -42.213 -10.736  0.00  0.00    +0.000 NA
ATOM     17  O28 97X A 701     -27.733 -43.600 -11.399  0.00  0.00    +0.000 OA
BRANCH  13  18
ATOM     18  C29 97X A 701     -33.108 -43.006  -9.499  0.00  0.00    +0.000 C 
ATOM     19  N30 97X A 701     -33.579 -41.681  -9.855  0.00  0.00    +0.000 NA
ENDBRANCH  13  18
ENDBRANCH   5   7
BRANCH   4  23
ATOM     20  C4  97X A 701     -28.536 -51.061  -9.548  0.00  0.00    +0.000 A 
ATOM     21  C7  97X A 701     -28.183 -51.107  -8.191  0.00  0.00    +0.000 A 
ATOM     22  C8  97X A 701     -29.057 -50.592  -7.250  0.00  0.00    +0.000 A 
ATOM     23  C10 97X A 701     -30.616 -49.974  -8.973  0.00  0.00    +0.000 A 
ATOM     24  C3  97X A 701     -29.755 -50.499  -9.927  0.00  0.00    +0.000 A 
ATOM     25  C31 97X A 701     -26.965 -51.669  -7.814  0.00  0.00    +0.000 A 
ATOM     26  C32 97X A 701     -26.112 -52.175  -8.775  0.00  0.00    +0.000 A 
ATOM     27  C33 97X A 701     -26.458 -52.129 -10.105  0.00  0.00    +0.000 A 
ATOM     28  C34 97X A 701     -27.659 -51.578 -10.493  0.00  0.00    +0.000 A 
ATOM     29  C9  97X A 701     -30.256 -50.040  -7.643  0.00  0.00    +0.000 A 
BRANCH  24  31
ATOM     30  N1  97X A 701     -30.422 -50.410 -12.494  0.00  0.00    +0.000 NA
ATOM     31  C2  97X A 701     -30.133 -50.450 -11.402  0.00  0.00    +0.000 C 
ENDBRANCH  24  31
ENDBRANCH   4  23
TORSDOF 4
