REMARK  Name = ligand_pdbs\AA8.pdb
REMARK  18 active torsions:
REMARK  status: ('A' for Active; 'I' for Inactive)
REMARK    1  A    between atoms: C24_2  and  C23_4
REMARK    2  A    between atoms: C22_5  and  C21_7
REMARK    3  A    between atoms: C21_7  and  C20_8
REMARK    4  A    between atoms: C20_8  and  C19_10
REMARK    5  A    between atoms: C19_10  and  C18_12
REMARK    6  A    between atoms: C18_12  and  C17_14
REMARK    7  A    between atoms: C17_14  and  C16_16
REMARK    8  A    between atoms: C16_16  and  C15_18
REMARK    9  A    between atoms: C14_19  and  C13_21
REMARK   10  A    between atoms: C12_22  and  C11_23
REMARK   11  A    between atoms: C11_23  and  C10_24
REMARK   12  A    between atoms: C10_24  and  C9_26
REMARK   13  A    between atoms: C9_26  and  C8_27
REMARK   14  A    between atoms: C7_29  and  C6_30
REMARK   15  A    between atoms: C6_30  and  C5_31
REMARK   16  A    between atoms: C5_31  and  C4_33
REMARK   17  A    between atoms: C4_33  and  C3_34
REMARK   18  A    between atoms: C2_35  and  C1_36
REMARK                            x       y       z     vdW  Elec       q    Type
REMARK                         _______ _______ _______ _____ _____    ______ ____
ROOT
ATOM      1  C15 AA8 C1101     -41.659  71.870  27.463  0.00  0.00    +0.000 C 
ATOM      2  C14 AA8 C1101     -40.416  72.333  27.689  0.00  0.00    +0.000 C 
ATOM      3  C27 AA8 C1101     -40.178  73.708  28.253  0.00  0.00    +0.000 C 
ENDROOT
BRANCH   1   4
ATOM      4  C16 AA8 C1101     -42.905  72.673  27.747  0.00  0.00    +0.000 C 
ATOM      5  C28 AA8 C1101     -43.846  72.563  26.554  0.00  0.00    +0.000 C 
BRANCH   4   6
ATOM      6  C17 AA8 C1101     -43.578  72.145  28.975  0.00  0.00    +0.000 C 
ATOM      7  O3  AA8 C1101     -44.136  71.061  28.923  0.00  0.00    +0.000 OA
BRANCH   6   8
ATOM      8  C18 AA8 C1101     -43.559  72.968  30.236  0.00  0.00    +0.000 C 
ATOM      9  C29 AA8 C1101     -44.645  74.037  30.105  0.00  0.00    +0.000 C 
BRANCH   8  10
ATOM     10  C19 AA8 C1101     -43.755  72.121  31.504  0.00  0.00    +0.000 C 
ATOM     11  O4  AA8 C1101     -43.833  72.987  32.644  0.00  0.00    +0.000 OA
BRANCH  10  12
ATOM     12  C20 AA8 C1101     -42.644  71.093  31.756  0.00  0.00    +0.000 C 
ATOM     13  C30 AA8 C1101     -41.313  71.762  32.084  0.00  0.00    +0.000 C 
BRANCH  12  14
ATOM     14  C21 AA8 C1101     -43.028  70.129  32.878  0.00  0.00    +0.000 C 
BRANCH  14  16
ATOM     15  C23 AA8 C1101     -45.392  69.483  33.212  0.00  0.00    +0.000 C 
ATOM     16  C22 AA8 C1101     -44.255  69.327  32.504  0.00  0.00    +0.000 C 
ATOM     17  C31 AA8 C1101     -44.176  68.391  31.334  0.00  0.00    +0.000 C 
BRANCH  15  19
ATOM     18  O6  AA8 C1101     -46.699  67.964  31.936  0.00  0.00    +0.000 OA
ATOM     19  C24 AA8 C1101     -46.623  68.724  32.919  0.00  0.00    +0.000 C 
ATOM     20  O5  AA8 C1101     -47.589  68.854  33.689  0.00  0.00    +0.000 OA
ENDBRANCH  15  19
ENDBRANCH  14  16
ENDBRANCH  12  14
ENDBRANCH  10  12
ENDBRANCH   8  10
ENDBRANCH   6   8
ENDBRANCH   4   6
ENDBRANCH   1   4
BRANCH   2  21
ATOM     21  C13 AA8 C1101     -39.283  71.441  27.348  0.00  0.00    +0.000 C 
ATOM     22  C12 AA8 C1101     -38.016  71.831  27.472  0.00  0.00    +0.000 C 
BRANCH  22  23
ATOM     23  C11 AA8 C1101     -36.895  70.889  27.102  0.00  0.00    +0.000 C 
BRANCH  23  24
ATOM     24  C10 AA8 C1101     -35.827  70.880  28.185  0.00  0.00    +0.000 C 
ATOM     25  C26 AA8 C1101     -36.390  70.312  29.482  0.00  0.00    +0.000 C 
BRANCH  24  26
ATOM     26  C9  AA8 C1101     -34.640  70.040  27.752  0.00  0.00    +0.000 C 
BRANCH  26  27
ATOM     27  C8  AA8 C1101     -33.358  70.471  27.788  0.00  0.00    +0.000 C 
ATOM     28  C25 AA8 C1101     -32.288  69.515  27.343  0.00  0.00    +0.000 C 
ATOM     29  C7  AA8 C1101     -33.020  71.839  28.275  0.00  0.00    +0.000 C 
BRANCH  29  30
ATOM     30  C6  AA8 C1101     -31.788  72.323  28.450  0.00  0.00    +0.000 C 
BRANCH  30  31
ATOM     31  C5  AA8 C1101     -31.746  73.745  28.970  0.00  0.00    +0.000 C 
ATOM     32  O2  AA8 C1101     -32.393  74.535  27.964  0.00  0.00    +0.000 OA
BRANCH  31  33
ATOM     33  C4  AA8 C1101     -30.365  74.333  29.235  0.00  0.00    +0.000 C 
BRANCH  33  34
ATOM     34  C3  AA8 C1101     -30.443  75.728  29.868  0.00  0.00    +0.000 C 
ATOM     35  C2  AA8 C1101     -31.720  76.517  29.589  0.00  0.00    +0.000 C 
BRANCH  35  36
ATOM     36  C1  AA8 C1101     -31.781  77.894  30.222  0.00  0.00    +0.000 C 
ATOM     37  O1  AA8 C1101     -32.843  78.536  30.085  0.00  0.00    +0.000 OA
ATOM     38  O1' AA8 C1101     -30.808  78.366  30.849  0.00  0.00    +0.000 OA
ENDBRANCH  35  36
ENDBRANCH  33  34
ENDBRANCH  31  33
ENDBRANCH  30  31
ENDBRANCH  29  30
ENDBRANCH  26  27
ENDBRANCH  24  26
ENDBRANCH  23  24
ENDBRANCH  22  23
ENDBRANCH   2  21
TORSDOF 18
