REMARK  Name = ligand_pdbs\ACE.pdb
REMARK  0 active torsions:
REMARK  status: ('A' for Active; 'I' for Inactive)
REMARK                            x       y       z     vdW  Elec       q    Type
REMARK                         _______ _______ _______ _____ _____    ______ ____
ROOT
ATOM      1  C   ACE C   0     -26.337 -52.756  -7.109  0.00  0.00    +0.000 C 
ATOM      2  O   ACE C   0     -25.357 -52.211  -6.513  0.00  0.00    +0.000 OA
ATOM      3  CH3 ACE C   0     -27.397 -53.417  -6.293  0.00  0.00    +0.000 C 
ENDROOT
TORSDOF 0
