REMARK  Name = ligand_pdbs\ADN.pdb
REMARK  2 active torsions:
REMARK  status: ('A' for Active; 'I' for Inactive)
REMARK    1  A    between atoms: C5'_2  and  C4'_3
REMARK    2  A    between atoms: C1'_9  and  N9_10
REMARK                            x       y       z     vdW  Elec       q    Type
REMARK                         _______ _______ _______ _____ _____    ______ ____
ROOT
ATOM      1  N9  ADN A 701     -33.995 -36.844  -3.751  0.00  0.00    +0.000 N 
ATOM      2  C8  ADN A 701     -34.915 -37.606  -4.420  0.00  0.00    +0.000 C 
ATOM      3  N7  ADN A 701     -36.124 -37.098  -4.437  0.00  0.00    +0.000 NA
ATOM      4  C5  ADN A 701     -35.989 -35.905  -3.742  0.00  0.00    +0.000 C 
ATOM      5  C6  ADN A 701     -36.916 -34.906  -3.384  0.00  0.00    +0.000 C 
ATOM      6  N6  ADN A 701     -38.185 -34.880  -3.820  0.00  0.00    +0.000 NA
ATOM      7  N1  ADN A 701     -36.473 -33.867  -2.638  0.00  0.00    +0.000 NA
ATOM      8  C2  ADN A 701     -35.171 -33.814  -2.324  0.00  0.00    +0.000 C 
ATOM      9  N3  ADN A 701     -34.203 -34.688  -2.621  0.00  0.00    +0.000 NA
ATOM     10  C4  ADN A 701     -34.680 -35.726  -3.324  0.00  0.00    +0.000 C 
ENDROOT
BRANCH   1  17
ATOM     11  C4' ADN A 701     -30.833 -37.933  -4.925  0.00  0.00    +0.000 C 
ATOM     12  O4' ADN A 701     -31.943 -37.008  -4.801  0.00  0.00    +0.000 OA
ATOM     13  C3' ADN A 701     -30.901 -38.848  -3.716  0.00  0.00    +0.000 C 
ATOM     14  O3' ADN A 701     -29.913 -38.416  -2.795  0.00  0.00    +0.000 OA
ATOM     15  C2' ADN A 701     -32.340 -38.654  -3.214  0.00  0.00    +0.000 C 
ATOM     16  O2' ADN A 701     -32.426 -39.016  -1.838  0.00  0.00    +0.000 OA
ATOM     17  C1' ADN A 701     -32.589 -37.188  -3.557  0.00  0.00    +0.000 C 
BRANCH  11  19
ATOM     18  O5' ADN A 701     -31.781 -39.714  -6.369  0.00  0.00    +0.000 OA
ATOM     19  C5' ADN A 701     -30.855 -38.624  -6.277  0.00  0.00    +0.000 C 
ENDBRANCH  11  19
ENDBRANCH   1  17
TORSDOF 2
