REMARK  Name = ligand_pdbs\AV6.pdb
REMARK  1 active torsions:
REMARK  status: ('A' for Active; 'I' for Inactive)
REMARK    1  A    between atoms: C12_12  and  C15_14
REMARK                            x       y       z     vdW  Elec       q    Type
REMARK                         _______ _______ _______ _____ _____    ______ ____
ROOT
ATOM      1  C1  AV6 A1921      36.218   7.879  18.374  0.00  0.00    +0.000 C 
ATOM      2  C2  AV6 A1921      36.799   9.090  18.948  0.00  0.00    +0.000 C 
ATOM      3  C3  AV6 A1921      37.827   9.742  18.318  0.00  0.00    +0.000 C 
ATOM      4  C4  AV6 A1921      38.309   9.237  17.126  0.00  0.00    +0.000 C 
ATOM      5  C5  AV6 A1921      37.802   8.089  16.536  0.00  0.00    +0.000 C 
ATOM      6  C6  AV6 A1921      36.757   7.382  17.095  0.00  0.00    +0.000 C 
ATOM      7  C7  AV6 A1921      36.216   6.253  16.513  0.00  0.00    +0.000 C 
ATOM      8  C8  AV6 A1921      35.181   5.634  17.194  0.00  0.00    +0.000 C 
ATOM      9  C9  AV6 A1921      34.639   6.066  18.407  0.00  0.00    +0.000 C 
ATOM     10  C10 AV6 A1921      35.124   7.175  19.049  0.00  0.00    +0.000 C 
ATOM     11  N11 AV6 A1921      34.658   7.640  20.206  0.00  0.00    +0.000 NA
ATOM     12  C12 AV6 A1921      35.229   8.868  20.760  0.00  0.00    +0.000 C 
ATOM     13  N13 AV6 A1921      36.321   9.546  20.080  0.00  0.00    +0.000 NA
ENDROOT
BRANCH  12  14
ATOM     14  C15 AV6 A1921      35.125   9.272  22.157  0.00  0.00    +0.000 A 
ATOM     15  C16 AV6 A1921      36.087  10.151  22.686  0.00  0.00    +0.000 A 
ATOM     16  C17 AV6 A1921      36.015  10.561  24.011  0.00  0.00    +0.000 A 
ATOM     17  C18 AV6 A1921      34.895  10.045  24.804  0.00  0.00    +0.000 A 
ATOM     18  C19 AV6 A1921      33.974   9.200  24.224  0.00  0.00    +0.000 A 
ATOM     19  C20 AV6 A1921      34.080   8.834  22.906  0.00  0.00    +0.000 A 
ATOM     20  O21 AV6 A1921      34.729  10.393  26.094  0.00  0.00    +0.000 OA
ATOM     21  O22 AV6 A1921      36.939  11.391  24.556  0.00  0.00    +0.000 OA
ENDBRANCH  12  14
TORSDOF 1
