REMARK  Name = ligand_pdbs\B5R.pdb
REMARK  7 active torsions:
REMARK  status: ('A' for Active; 'I' for Inactive)
REMARK    1  A    between atoms: C16_8  and  O14_9
REMARK    2  A    between atoms: O14_9  and  C13_10
REMARK    3  A    between atoms: C13_10  and  C11_11
REMARK    4  A    between atoms: C11_11  and  C10_14
REMARK    5  A    between atoms: N9_16  and  C6_17
REMARK    6  A    between atoms: C3_21  and  C8_22
REMARK    7  A    between atoms: C4_24  and  C7_25
REMARK                            x       y       z     vdW  Elec       q    Type
REMARK                         _______ _______ _______ _____ _____    ______ ____
ROOT
ATOM      1  C10 B5R A   1      28.565   1.623   3.798  0.00  0.00    +0.000 C 
ATOM      2  O10 B5R A   1      27.501   1.016   3.916  0.00  0.00    +0.000 OA
ATOM      3  N9  B5R A   1      28.681   2.940   3.641  0.00  0.00    +0.000 NA
ENDROOT
BRANCH   3   4
ATOM      4  C6  B5R A   1      27.678   3.813   3.563  0.00  0.00    +0.000 A 
ATOM      5  C5  B5R A   1      26.338   3.470   3.733  0.00  0.00    +0.000 A 
ATOM      6  C1  B5R A   1      28.019   5.150   3.391  0.00  0.00    +0.000 A 
ATOM      7  C2  B5R A   1      27.023   6.119   3.399  0.00  0.00    +0.000 A 
ATOM      8  C3  B5R A   1      25.689   5.764   3.576  0.00  0.00    +0.000 A 
ATOM      9  C4  B5R A   1      25.320   4.427   3.747  0.00  0.00    +0.000 A 
BRANCH   9  10
ATOM     10  C7  B5R A   1      23.866   3.994   4.018  0.00  0.00    +0.000 C 
ATOM     11  F2  B5R A   1      22.971   4.651   3.285  0.00  0.00    +0.000 F 
ATOM     12  F1  B5R A   1      23.655   2.709   3.748  0.00  0.00    +0.000 F 
ATOM     13  F3  B5R A   1      23.561   4.187   5.297  0.00  0.00    +0.000 F 
ENDBRANCH   9  10
BRANCH   8  14
ATOM     14  C8  B5R A   1      24.743   6.838   3.572  0.00  0.00    +0.000 C 
ATOM     15  N8  B5R A   1      24.001   7.701   3.560  0.00  0.00    +0.000 NA
ENDBRANCH   8  14
ENDBRANCH   3   4
BRANCH   1  16
ATOM     16  C11 B5R A   1      29.899   0.878   3.880  0.00  0.00    +0.000 C 
ATOM     17  O11 B5R A   1      30.869   1.546   3.070  0.00  0.00    +0.000 OA
ATOM     18  C12 B5R A   1      29.726  -0.571   3.419  0.00  0.00    +0.000 C 
BRANCH  16  19
ATOM     19  C13 B5R A   1      30.368   0.910   5.326  0.00  0.00    +0.000 C 
BRANCH  19  20
ATOM     20  O14 B5R A   1      29.189   0.763   6.129  0.00  0.00    +0.000 OA
BRANCH  20  28
ATOM     21  C21 B5R A   1      29.563  -0.650   8.000  0.00  0.00    +0.000 A 
ATOM     22  C20 B5R A   1      29.586  -0.831   9.379  0.00  0.00    +0.000 A 
ATOM     23  F20 B5R A   1      29.706  -2.093   9.842  0.00  0.00    +0.000 F 
ATOM     24  C19 B5R A   1      29.481   0.274  10.223  0.00  0.00    +0.000 A 
ATOM     25 CL19 B5R A   1      29.448   0.123  11.947  0.00  0.00    +0.000 Cl
ATOM     26  C18 B5R A   1      29.367   1.550   9.677  0.00  0.00    +0.000 A 
ATOM     27  C17 B5R A   1      29.343   1.733   8.298  0.00  0.00    +0.000 A 
ATOM     28  C16 B5R A   1      29.430   0.626   7.459  0.00  0.00    +0.000 A 
ENDBRANCH  20  28
ENDBRANCH  19  20
ENDBRANCH  16  19
ENDBRANCH   1  16
TORSDOF 7
