REMARK  Name = ligand_pdbs\B66.pdb
REMARK  8 active torsions:
REMARK  status: ('A' for Active; 'I' for Inactive)
REMARK    1  A    between atoms: C21_3  and  N19_4
REMARK    2  A    between atoms: C16_9  and  O14_10
REMARK    3  A    between atoms: O14_10  and  C13_11
REMARK    4  A    between atoms: C13_11  and  C11_12
REMARK    5  A    between atoms: C11_12  and  C10_15
REMARK    6  A    between atoms: N9_17  and  C6_18
REMARK    7  A    between atoms: C3_22  and  C8_23
REMARK    8  A    between atoms: C4_25  and  C7_26
REMARK                            x       y       z     vdW  Elec       q    Type
REMARK                         _______ _______ _______ _____ _____    ______ ____
ROOT
ATOM      1  C10 B66 A   1      28.445   1.345   3.924  0.00  0.00    +0.000 C 
ATOM      2  O10 B66 A   1      27.380   0.785   4.181  0.00  0.00    +0.000 OA
ATOM      3  N9  B66 A   1      28.594   2.650   3.708  0.00  0.00    +0.000 NA
ENDROOT
BRANCH   3   4
ATOM      4  C6  B66 A   1      27.625   3.565   3.692  0.00  0.00    +0.000 A 
ATOM      5  C5  B66 A   1      26.282   3.266   3.912  0.00  0.00    +0.000 A 
ATOM      6  C1  B66 A   1      27.994   4.883   3.450  0.00  0.00    +0.000 A 
ATOM      7  C2  B66 A   1      27.023   5.877   3.431  0.00  0.00    +0.000 A 
ATOM      8  C3  B66 A   1      25.685   5.565   3.654  0.00  0.00    +0.000 A 
ATOM      9  C4  B66 A   1      25.289   4.247   3.899  0.00  0.00    +0.000 A 
BRANCH   9  10
ATOM     10  C7  B66 A   1      23.830   3.849   4.195  0.00  0.00    +0.000 C 
ATOM     11  F2  B66 A   1      23.559   4.057   5.480  0.00  0.00    +0.000 F 
ATOM     12  F3  B66 A   1      22.944   4.527   3.471  0.00  0.00    +0.000 F 
ATOM     13  F1  B66 A   1      23.591   2.565   3.940  0.00  0.00    +0.000 F 
ENDBRANCH   9  10
BRANCH   8  14
ATOM     14  C8  B66 A   1      24.765   6.662   3.625  0.00  0.00    +0.000 C 
ATOM     15  N8  B66 A   1      24.039   7.538   3.594  0.00  0.00    +0.000 NA
ENDBRANCH   8  14
ENDBRANCH   3   4
BRANCH   1  16
ATOM     16  C11 B66 A   1      29.761   0.566   3.883  0.00  0.00    +0.000 C 
ATOM     17  O11 B66 A   1      30.779   1.406   3.333  0.00  0.00    +0.000 OA
ATOM     18  C12 B66 A   1      29.601  -0.701   3.040  0.00  0.00    +0.000 C 
BRANCH  16  19
ATOM     19  C13 B66 A   1      30.139   0.190   5.306  0.00  0.00    +0.000 C 
BRANCH  19  20
ATOM     20  O14 B66 A   1      30.126   1.392   6.093  0.00  0.00    +0.000 OA
BRANCH  20  26
ATOM     21  C17 B66 A   1      28.997   2.025   8.078  0.00  0.00    +0.000 A 
ATOM     22  C18 B66 A   1      28.769   1.874   9.442  0.00  0.00    +0.000 A 
ATOM     23  C21 B66 A   1      29.431   0.879  10.156  0.00  0.00    +0.000 A 
ATOM     24  C20 B66 A   1      30.322   0.036   9.496  0.00  0.00    +0.000 A 
ATOM     25  C19 B66 A   1      30.548   0.187   8.131  0.00  0.00    +0.000 A 
ATOM     26  C16 B66 A   1      29.886   1.182   7.416  0.00  0.00    +0.000 A 
BRANCH  23  27
ATOM     27  N19 B66 A   1      29.191   0.714  11.454  0.00  0.00    +0.000 N 
ATOM     28  O20 B66 A   1      29.906  -0.264  12.196  0.00  0.00    +0.000 OA
ATOM     29  O19 B66 A   1      28.245   1.541  12.120  0.00  0.00    +0.000 OA
ENDBRANCH  23  27
ENDBRANCH  20  26
ENDBRANCH  19  20
ENDBRANCH  16  19
ENDBRANCH   1  16
TORSDOF 8
