REMARK  Name = ligand_pdbs\B67.pdb
REMARK  7 active torsions:
REMARK  status: ('A' for Active; 'I' for Inactive)
REMARK    1  A    between atoms: C7_2  and  C4_5
REMARK    2  A    between atoms: C3_7  and  N8_8
REMARK    3  A    between atoms: C6_13  and  N9_14
REMARK    4  A    between atoms: C10_15  and  C11_17
REMARK    5  A    between atoms: C11_17  and  C13_20
REMARK    6  A    between atoms: C13_20  and  O14_21
REMARK    7  A    between atoms: O14_21  and  C16_22
REMARK                            x       y       z     vdW  Elec       q    Type
REMARK                         _______ _______ _______ _____ _____    ______ ____
ROOT
ATOM      1  N9  B67 A   1      28.602   2.796   3.838  0.00  0.00    +0.000 NA
ATOM      2  C10 B67 A   1      28.501   1.540   4.271  0.00  0.00    +0.000 C 
ATOM      3  O10 B67 A   1      27.458   1.007   4.646  0.00  0.00    +0.000 OA
ENDROOT
BRANCH   1   9
ATOM      4  C4  B67 A   1      25.242   4.246   4.156  0.00  0.00    +0.000 A 
ATOM      5  C5  B67 A   1      26.292   3.328   4.151  0.00  0.00    +0.000 A 
ATOM      6  C3  B67 A   1      25.528   5.556   3.764  0.00  0.00    +0.000 A 
ATOM      7  C2  B67 A   1      26.816   5.890   3.357  0.00  0.00    +0.000 A 
ATOM      8  C1  B67 A   1      27.849   4.960   3.353  0.00  0.00    +0.000 A 
ATOM      9  C6  B67 A   1      27.589   3.657   3.765  0.00  0.00    +0.000 A 
BRANCH   4  11
ATOM     10  F1  B67 A   1      23.747   2.423   4.434  0.00  0.00    +0.000 F 
ATOM     11  C7  B67 A   1      23.827   3.749   4.507  0.00  0.00    +0.000 C 
ATOM     12  F2  B67 A   1      23.512   4.086   5.754  0.00  0.00    +0.000 F 
ATOM     13  F3  B67 A   1      22.906   4.217   3.670  0.00  0.00    +0.000 F 
ENDBRANCH   4  11
BRANCH   6  14
ATOM     14  N8  B67 A   1      24.690   6.579   3.927  0.00  0.00    +0.000 N 
ATOM     15  O2  B67 A   1      25.045   7.839   3.377  0.00  0.00    +0.000 OA
ATOM     16  O1  B67 A   1      23.425   6.458   4.561  0.00  0.00    +0.000 OA
ENDBRANCH   6  14
ENDBRANCH   1   9
BRANCH   2  17
ATOM     17  C11 B67 A   1      29.821   0.765   4.288  0.00  0.00    +0.000 C 
ATOM     18  O11 B67 A   1      30.856   1.572   3.720  0.00  0.00    +0.000 OA
ATOM     19  C12 B67 A   1      29.673  -0.538   3.500  0.00  0.00    +0.000 C 
BRANCH  17  20
ATOM     20  C13 B67 A   1      30.156   0.436   5.735  0.00  0.00    +0.000 C 
BRANCH  20  21
ATOM     21  O14 B67 A   1      30.467   1.602   6.518  0.00  0.00    +0.000 OA
BRANCH  21  22
ATOM     22  C16 B67 A   1      29.784   1.628   7.698  0.00  0.00    +0.000 A 
ATOM     23  C17 B67 A   1      28.731   2.522   7.879  0.00  0.00    +0.000 A 
ATOM     24  F17 B67 A   1      28.400   3.331   6.850  0.00  0.00    +0.000 F 
ATOM     25  C18 B67 A   1      28.050   2.571   9.097  0.00  0.00    +0.000 A 
ATOM     26  F18 B67 A   1      27.069   3.484   9.282  0.00  0.00    +0.000 F 
ATOM     27  C19 B67 A   1      28.416   1.705  10.129  0.00  0.00    +0.000 A 
ATOM     28  F19 B67 A   1      27.720   1.703  11.288  0.00  0.00    +0.000 F 
ATOM     29  C20 B67 A   1      29.475   0.808   9.952  0.00  0.00    +0.000 A 
ATOM     30  F20 B67 A   1      29.801  -0.067  10.928  0.00  0.00    +0.000 F 
ATOM     31  C21 B67 A   1      30.163   0.785   8.738  0.00  0.00    +0.000 A 
ATOM     32  F21 B67 A   1      31.239  -0.008   8.539  0.00  0.00    +0.000 F 
ENDBRANCH  21  22
ENDBRANCH  20  21
ENDBRANCH  17  20
ENDBRANCH   2  17
TORSDOF 7
