REMARK  Name = ligand_pdbs\B68.pdb
REMARK  8 active torsions:
REMARK  status: ('A' for Active; 'I' for Inactive)
REMARK    1  A    between atoms: N22_4  and  C19_5
REMARK    2  A    between atoms: C16_10  and  O14_11
REMARK    3  A    between atoms: O14_11  and  C13_12
REMARK    4  A    between atoms: C13_12  and  C11_13
REMARK    5  A    between atoms: C11_13  and  C10_16
REMARK    6  A    between atoms: N9_18  and  C6_19
REMARK    7  A    between atoms: C3_23  and  N8_24
REMARK    8  A    between atoms: C4_27  and  C7_28
REMARK                            x       y       z     vdW  Elec       q    Type
REMARK                         _______ _______ _______ _____ _____    ______ ____
ROOT
ATOM      1  C10 B68 A   1      28.424   1.600   4.138  0.00  0.00    +0.000 C 
ATOM      2  O10 B68 A   1      27.354   1.042   4.376  0.00  0.00    +0.000 OA
ATOM      3  N9  B68 A   1      28.564   2.892   3.846  0.00  0.00    +0.000 NA
ENDROOT
BRANCH   3   4
ATOM      4  C6  B68 A   1      27.570   3.774   3.743  0.00  0.00    +0.000 A 
ATOM      5  C5  B68 A   1      26.235   3.443   3.969  0.00  0.00    +0.000 A 
ATOM      6  C1  B68 A   1      27.886   5.091   3.435  0.00  0.00    +0.000 A 
ATOM      7  C2  B68 A   1      26.872   6.042   3.375  0.00  0.00    +0.000 A 
ATOM      8  C3  B68 A   1      25.543   5.706   3.619  0.00  0.00    +0.000 A 
ATOM      9  C4  B68 A   1      25.203   4.380   3.910  0.00  0.00    +0.000 A 
BRANCH   9  10
ATOM     10  C7  B68 A   1      23.757   3.899   4.137  0.00  0.00    +0.000 C 
ATOM     11  F2  B68 A   1      23.300   4.327   5.310  0.00  0.00    +0.000 F 
ATOM     12  F1  B68 A   1      22.917   4.310   3.191  0.00  0.00    +0.000 F 
ATOM     13  F3  B68 A   1      23.671   2.572   4.153  0.00  0.00    +0.000 F 
ENDBRANCH   9  10
BRANCH   8  14
ATOM     14  N8  B68 A   1      24.668   6.711   3.577  0.00  0.00    +0.000 N 
ATOM     15  O1  B68 A   1      23.301   6.566   3.934  0.00  0.00    +0.000 OA
ATOM     16  O2  B68 A   1      25.123   8.019   3.262  0.00  0.00    +0.000 OA
ENDBRANCH   8  14
ENDBRANCH   3   4
BRANCH   1  17
ATOM     17  C11 B68 A   1      29.736   0.817   4.198  0.00  0.00    +0.000 C 
ATOM     18  O11 B68 A   1      30.808   1.670   3.788  0.00  0.00    +0.000 OA
ATOM     19  C12 B68 A   1      29.659  -0.411   3.289  0.00  0.00    +0.000 C 
BRANCH  17  20
ATOM     20  C13 B68 A   1      29.966   0.372   5.634  0.00  0.00    +0.000 C 
BRANCH  20  21
ATOM     21  O14 B68 A   1      30.229   1.512   6.468  0.00  0.00    +0.000 OA
BRANCH  21  27
ATOM     22  C19 B68 A   1      29.532   0.806  10.507  0.00  0.00    +0.000 A 
ATOM     23  C18 B68 A   1      30.703   0.349   9.905  0.00  0.00    +0.000 A 
ATOM     24  C17 B68 A   1      30.933   0.570   8.550  0.00  0.00    +0.000 A 
ATOM     25  C20 B68 A   1      28.595   1.487   9.736  0.00  0.00    +0.000 A 
ATOM     26  C21 B68 A   1      28.820   1.708   8.380  0.00  0.00    +0.000 A 
ATOM     27  C16 B68 A   1      29.991   1.248   7.782  0.00  0.00    +0.000 A 
BRANCH  22  31
ATOM     28  C24 B68 A   1      29.530  -0.153  14.074  0.00  0.00    +0.000 C 
ATOM     29  C23 B68 A   1      30.074  -0.031  12.649  0.00  0.00    +0.000 C 
ATOM     30  O23 B68 A   1      31.189  -0.468  12.365  0.00  0.00    +0.000 OA
ATOM     31  N22 B68 A   1      29.266   0.597  11.797  0.00  0.00    +0.000 NA
ENDBRANCH  22  31
ENDBRANCH  21  27
ENDBRANCH  20  21
ENDBRANCH  17  20
ENDBRANCH   1  17
TORSDOF 8
