REMARK  Name = ligand_pdbs\BEF.pdb
REMARK  0 active torsions:
REMARK  status: ('A' for Active; 'I' for Inactive)
REMARK                            x       y       z     vdW  Elec       q    Type
REMARK                         _______ _______ _______ _____ _____    ______ ____
ROOT
ATOM      1 BE   BEF A 201      22.999 -12.273  10.448  0.00  0.00    +0.000 Be
ATOM      2  F2  BEF A 201      22.825 -13.495   9.227  0.00  0.00    +0.000 F 
ATOM      3  F3  BEF A 201      24.617 -11.721  10.462  0.00  0.00    +0.000 F 
ENDROOT
TORSDOF 0
REMARK  Name = ligand_pdbs\BEF.pdb
REMARK  0 active torsions:
REMARK  status: ('A' for Active; 'I' for Inactive)
REMARK                            x       y       z     vdW  Elec       q    Type
REMARK                         _______ _______ _______ _____ _____    ______ ____
ROOT
ATOM      1  F1  BEF A 201      22.058 -12.185  11.908  0.00  0.00    +0.000 F 
ENDROOT
TORSDOF 0
