REMARK  Name = ligand_pdbs\BHM.pdb
REMARK  5 active torsions:
REMARK  status: ('A' for Active; 'I' for Inactive)
REMARK    1  A    between atoms: C13_2  and  C11_3
REMARK    2  A    between atoms: C11_3  and  C10_6
REMARK    3  A    between atoms: N09_8  and  C06_9
REMARK    4  A    between atoms: C03_13  and  N08_14
REMARK    5  A    between atoms: C04_17  and  C07_18
REMARK                            x       y       z     vdW  Elec       q    Type
REMARK                         _______ _______ _______ _____ _____    ______ ____
ROOT
ATOM      1  C06 BHM A   1      27.787   3.622   3.746  0.00  0.00    +0.000 A 
ATOM      2  C05 BHM A   1      26.454   3.345   4.038  0.00  0.00    +0.000 A 
ATOM      3  C01 BHM A   1      28.154   4.935   3.470  0.00  0.00    +0.000 A 
ATOM      4  C02 BHM A   1      27.193   5.939   3.508  0.00  0.00    +0.000 A 
ATOM      5  C03 BHM A   1      25.865   5.657   3.817  0.00  0.00    +0.000 A 
ATOM      6  C04 BHM A   1      25.474   4.339   4.070  0.00  0.00    +0.000 A 
ENDROOT
BRANCH   6   7
ATOM      7  C07 BHM A   1      24.008   3.923   4.290  0.00  0.00    +0.000 C 
ATOM      8  F01 BHM A   1      23.612   4.280   5.508  0.00  0.00    +0.000 F 
ATOM      9  F02 BHM A   1      23.182   4.462   3.397  0.00  0.00    +0.000 F 
ATOM     10  F03 BHM A   1      23.834   2.609   4.182  0.00  0.00    +0.000 F 
ENDBRANCH   6   7
BRANCH   1  13
ATOM     11  C10 BHM A   1      28.541   1.386   3.943  0.00  0.00    +0.000 C 
ATOM     12  O10 BHM A   1      27.477   0.886   4.309  0.00  0.00    +0.000 OA
ATOM     13  N09 BHM A   1      28.728   2.680   3.691  0.00  0.00    +0.000 NA
BRANCH  11  14
ATOM     14  C11 BHM A   1      29.797   0.524   3.794  0.00  0.00    +0.000 C 
ATOM     15  O11 BHM A   1      30.833   1.313   3.202  0.00  0.00    +0.000 OA
ATOM     16  C12 BHM A   1      29.475  -0.677   2.903  0.00  0.00    +0.000 C 
BRANCH  14  18
ATOM     17 BRAI BHM A   1      30.748   1.562   6.284  0.00  0.00    +0.000 Br
ATOM     18  C13 BHM A   1      30.268   0.044   5.169  0.00  0.00    +0.000 C 
ENDBRANCH  14  18
ENDBRANCH  11  14
ENDBRANCH   1  13
BRANCH   5  19
ATOM     19  N08 BHM A   1      25.039   6.703   3.874  0.00  0.00    +0.000 N 
ATOM     20  O02 BHM A   1      23.697   6.611   4.329  0.00  0.00    +0.000 OA
ATOM     21  O01 BHM A   1      25.539   8.001   3.584  0.00  0.00    +0.000 OA
ENDBRANCH   5  19
TORSDOF 5
