REMARK  Name = ligand_pdbs\BME.pdb
REMARK  1 active torsions:
REMARK  status: ('A' for Active; 'I' for Inactive)
REMARK    1  A    between atoms: C1_1  and  C2_2
REMARK                            x       y       z     vdW  Elec       q    Type
REMARK                         _______ _______ _______ _____ _____    ______ ____
ROOT
ATOM      1  C1  BME A1101     -49.935 -27.167 -48.927  0.00  0.00    +0.000 C 
ATOM      2  O1  BME A1101     -49.050 -27.044 -47.828  0.00  0.00    +0.000 OA
ENDROOT
BRANCH   1   3
ATOM      3  C2  BME A1101     -49.257 -27.710 -50.143  0.00  0.00    +0.000 C 
ATOM      4  S2  BME A1101     -49.559 -26.608 -51.550  0.00  0.00    +0.000 S 
ENDBRANCH   1   3
TORSDOF 1
