REMARK  Name = ligand_pdbs\CA4.pdb
REMARK  3 active torsions:
REMARK  status: ('A' for Active; 'I' for Inactive)
REMARK    1  A    between atoms: C17_22  and  C20_23
REMARK    2  A    between atoms: C17_22  and  O17_26
REMARK    3  A    between atoms: O17_26  and  C23_27
REMARK                            x       y       z     vdW  Elec       q    Type
REMARK                         _______ _______ _______ _____ _____    ______ ____
ROOT
ATOM      1  C4  CA4 A   1      25.371   5.486   4.360  0.00  0.00    +0.000 C 
ATOM      2  C14 CA4 A   1      27.799   0.420   3.910  0.00  0.00    +0.000 C 
ATOM      3  C5  CA4 A   1      26.023   4.260   4.434  0.00  0.00    +0.000 C 
ATOM      4  C6  CA4 A   1      25.261   3.108   4.611  0.00  0.00    +0.000 C 
ATOM      5  C11 CA4 A   1      29.541   2.744   3.959  0.00  0.00    +0.000 C 
ATOM      6  C7  CA4 A   1      25.856   1.854   4.724  0.00  0.00    +0.000 C 
ATOM      7  C8  CA4 A   1      27.376   1.680   4.668  0.00  0.00    +0.000 C 
ATOM      8  C9  CA4 A   1      28.015   2.879   3.964  0.00  0.00    +0.000 C 
ATOM      9  C10 CA4 A   1      27.541   4.174   4.623  0.00  0.00    +0.000 C 
ATOM     10  C12 CA4 A   1      29.971   1.462   3.238  0.00  0.00    +0.000 C 
ATOM     11  C13 CA4 A   1      29.316   0.257   3.915  0.00  0.00    +0.000 C 
ATOM     12  C3  CA4 A   1      26.048   6.680   4.138  0.00  0.00    +0.000 C 
ATOM     13  C19 CA4 A   1      27.783   4.128   6.134  0.00  0.00    +0.000 C 
ATOM     14  C1  CA4 A   1      28.314   5.373   4.065  0.00  0.00    +0.000 C 
ATOM     15  C22 CA4 A   1      27.961   5.895   2.673  0.00  0.00    +0.000 C 
ATOM     16  C2  CA4 A   1      27.561   6.696   3.916  0.00  0.00    +0.000 C 
ATOM     17  O3  CA4 A   1      25.429   7.743   4.138  0.00  0.00    +0.000 OA
ATOM     18 CL6  CA4 A   1      23.541   3.246   4.744  0.00  0.00    +0.000 Cl
ATOM     19  C18 CA4 A   1      29.846   0.105   5.343  0.00  0.00    +0.000 C 
ATOM     20  C15 CA4 A   1      27.350  -0.924   4.487  0.00  0.00    +0.000 C 
ATOM     21  C16 CA4 A   1      28.353  -1.911   3.873  0.00  0.00    +0.000 C 
ATOM     22  C17 CA4 A   1      29.394  -1.058   3.138  0.00  0.00    +0.000 C 
ENDROOT
BRANCH  22  23
ATOM     23  C20 CA4 A   1      30.795  -1.672   3.196  0.00  0.00    +0.000 C 
ATOM     24  C21 CA4 A   1      31.121  -2.711   4.270  0.00  0.00    +0.000 C 
ATOM     25  O20 CA4 A   1      31.647  -1.352   2.368  0.00  0.00    +0.000 OA
ENDBRANCH  22  23
BRANCH  22  26
ATOM     26  O17 CA4 A   1      28.972  -0.810   1.792  0.00  0.00    +0.000 OA
BRANCH  26  27
ATOM     27  C23 CA4 A   1      29.016  -1.912   0.993  0.00  0.00    +0.000 C 
ATOM     28  C24 CA4 A   1      28.638  -1.770  -0.482  0.00  0.00    +0.000 C 
ATOM     29  O23 CA4 A   1      29.370  -3.004   1.437  0.00  0.00    +0.000 OA
ENDBRANCH  26  27
ENDBRANCH  22  26
TORSDOF 3
