REMARK  Name = ligand_pdbs\D29.pdb
REMARK  7 active torsions:
REMARK  status: ('A' for Active; 'I' for Inactive)
REMARK    1  A    between atoms: C7_2  and  C6_5
REMARK    2  A    between atoms: C4_8  and  S1_15
REMARK    3  A    between atoms: C2_10  and  C8_11
REMARK    4  A    between atoms: S1_15  and  C9_17
REMARK    5  A    between atoms: C10_18  and  C11_19
REMARK    6  A    between atoms: C11_19  and  C12_20
REMARK    7  A    between atoms: C12_20  and  N_21
REMARK                            x       y       z     vdW  Elec       q    Type
REMARK                         _______ _______ _______ _____ _____    ______ ____
ROOT
ATOM      1  C6  D29 C1101     -34.623  71.744  27.107  0.00  0.00    +0.000 A 
ATOM      2  C1  D29 C1101     -34.022  70.581  26.686  0.00  0.00    +0.000 A 
ATOM      3  C5  D29 C1101     -33.915  72.859  27.482  0.00  0.00    +0.000 A 
ATOM      4  C4  D29 C1101     -32.546  72.813  27.476  0.00  0.00    +0.000 A 
ATOM      5  C3  D29 C1101     -31.892  71.642  27.050  0.00  0.00    +0.000 A 
ATOM      6  C2  D29 C1101     -32.648  70.519  26.684  0.00  0.00    +0.000 A 
ENDROOT
BRANCH   1   8
ATOM      7  F6  D29 C1101     -36.646  70.674  27.013  0.00  0.00    +0.000 F 
ATOM      8  C7  D29 C1101     -36.089  71.849  27.129  0.00  0.00    +0.000 C 
ATOM      9  F4  D29 C1101     -36.463  72.321  28.298  0.00  0.00    +0.000 F 
ATOM     10  F5  D29 C1101     -36.381  72.638  26.107  0.00  0.00    +0.000 F 
ENDBRANCH   1   8
BRANCH   6  11
ATOM     11  C8  D29 C1101     -32.015  69.246  26.216  0.00  0.00    +0.000 C 
ATOM     12  F3  D29 C1101     -32.818  68.210  26.377  0.00  0.00    +0.000 F 
ATOM     13  F2  D29 C1101     -30.840  69.001  26.756  0.00  0.00    +0.000 F 
ATOM     14  F1  D29 C1101     -31.821  69.431  24.943  0.00  0.00    +0.000 F 
ENDBRANCH   6  11
BRANCH   4  15
ATOM     15  S1  D29 C1101     -31.855  74.217  27.968  0.00  0.00    +0.000 S 
ATOM     16  O   D29 C1101     -32.118  74.954  26.712  0.00  0.00    +0.000 OA
BRANCH  15  17
ATOM     17  C9  D29 C1101     -30.273  73.953  27.941  0.00  0.00    +0.000 C 
ATOM     18  C10 D29 C1101     -29.479  74.876  27.406  0.00  0.00    +0.000 C 
BRANCH  18  19
ATOM     19  C11 D29 C1101     -27.987  74.692  27.347  0.00  0.00    +0.000 C 
BRANCH  19  20
ATOM     20  C12 D29 C1101     -27.252  75.959  27.783  0.00  0.00    +0.000 C 
BRANCH  20  21
ATOM     21  N   D29 C1101     -27.987  76.678  28.825  0.00  0.00    +0.000 NA
ATOM     22  C13 D29 C1101     -28.245  76.225  29.979  0.00  0.00    +0.000 C 
ATOM     23  S2  D29 C1101     -27.795  74.677  30.504  0.00  0.00    +0.000 S 
ENDBRANCH  20  21
ENDBRANCH  19  20
ENDBRANCH  18  19
ENDBRANCH  15  17
ENDBRANCH   4  15
TORSDOF 7
