REMARK  Name = ligand_pdbs\DHT.pdb
REMARK  0 active torsions:
REMARK  status: ('A' for Active; 'I' for Inactive)
REMARK                            x       y       z     vdW  Elec       q    Type
REMARK                         _______ _______ _______ _____ _____    ______ ____
ROOT
ATOM      1  C1  DHT A 201      27.685   5.199   4.565  0.00  0.00    +0.000 C 
ATOM      2  C2  DHT A 201      26.814   6.485   4.636  0.00  0.00    +0.000 C 
ATOM      3  C3  DHT A 201      25.484   6.280   3.944  0.00  0.00    +0.000 C 
ATOM      4  O3  DHT A 201      24.904   7.249   3.448  0.00  0.00    +0.000 OA
ATOM      5  C4  DHT A 201      24.887   4.964   3.857  0.00  0.00    +0.000 C 
ATOM      6  C5  DHT A 201      25.464   3.903   4.357  0.00  0.00    +0.000 C 
ATOM      7  C6  DHT A 201      24.727   2.560   4.241  0.00  0.00    +0.000 C 
ATOM      8  C7  DHT A 201      25.613   1.454   3.609  0.00  0.00    +0.000 C 
ATOM      9  C8  DHT A 201      26.955   1.303   4.359  0.00  0.00    +0.000 C 
ATOM     10  C9  DHT A 201      27.708   2.656   4.279  0.00  0.00    +0.000 C 
ATOM     11  C10 DHT A 201      26.943   3.876   4.949  0.00  0.00    +0.000 C 
ATOM     12  C11 DHT A 201      29.161   2.525   4.830  0.00  0.00    +0.000 C 
ATOM     13  C12 DHT A 201      29.951   1.344   4.192  0.00  0.00    +0.000 C 
ATOM     14  C13 DHT A 201      29.194  -0.010   4.339  0.00  0.00    +0.000 C 
ATOM     15  C14 DHT A 201      27.784   0.212   3.680  0.00  0.00    +0.000 C 
ATOM     16  C15 DHT A 201      27.178  -1.232   3.647  0.00  0.00    +0.000 C 
ATOM     17  C16 DHT A 201      28.435  -2.118   3.310  0.00  0.00    +0.000 C 
ATOM     18  C17 DHT A 201      29.679  -1.189   3.426  0.00  0.00    +0.000 C 
ATOM     19  O17 DHT A 201      30.910  -1.918   3.981  0.00  0.00    +0.000 OA
ATOM     20  C18 DHT A 201      29.107  -0.450   5.847  0.00  0.00    +0.000 C 
ATOM     21  C19 DHT A 201      26.781   3.770   6.524  0.00  0.00    +0.000 C 
ENDROOT
TORSDOF 0
