REMARK  Name = ligand_pdbs\DHT_A_931 .pdb
REMARK  0 active torsions:
REMARK  status: ('A' for Active; 'I' for Inactive)
REMARK                            x       y       z     vdW  Elec       q    Type
REMARK                         _______ _______ _______ _____ _____    ______ ____
ROOT
ATOM      1  C1  DHT A 931      27.327   5.311   4.549  0.00  0.00    +0.000 C 
ATOM      2  C2  DHT A 931      26.532   6.561   4.971  0.00  0.00    +0.000 C 
ATOM      3  C3  DHT A 931      25.101   6.401   4.372  0.00  0.00    +0.000 C 
ATOM      4  O3  DHT A 931      24.624   7.332   3.740  0.00  0.00    +0.000 OA
ATOM      5  C4  DHT A 931      24.385   5.105   4.592  0.00  0.00    +0.000 C 
ATOM      6  C5  DHT A 931      25.230   3.893   4.114  0.00  0.00    +0.000 C 
ATOM      7  C6  DHT A 931      24.507   2.526   4.344  0.00  0.00    +0.000 C 
ATOM      8  C7  DHT A 931      25.389   1.382   3.815  0.00  0.00    +0.000 C 
ATOM      9  C8  DHT A 931      26.798   1.342   4.508  0.00  0.00    +0.000 C 
ATOM     10  C9  DHT A 931      27.511   2.725   4.305  0.00  0.00    +0.000 C 
ATOM     11  C10 DHT A 931      26.656   3.936   4.849  0.00  0.00    +0.000 C 
ATOM     12  C11 DHT A 931      28.928   2.653   4.972  0.00  0.00    +0.000 C 
ATOM     13  C12 DHT A 931      29.829   1.506   4.522  0.00  0.00    +0.000 C 
ATOM     14  C13 DHT A 931      29.119   0.130   4.583  0.00  0.00    +0.000 C 
ATOM     15  C14 DHT A 931      27.702   0.232   3.923  0.00  0.00    +0.000 C 
ATOM     16  C15 DHT A 931      27.198  -1.227   4.015  0.00  0.00    +0.000 C 
ATOM     17  C16 DHT A 931      28.476  -2.031   3.627  0.00  0.00    +0.000 C 
ATOM     18  C17 DHT A 931      29.639  -1.005   3.718  0.00  0.00    +0.000 C 
ATOM     19  O17 DHT A 931      30.804  -1.641   4.256  0.00  0.00    +0.000 OA
ATOM     20  C18 DHT A 931      29.019  -0.320   6.097  0.00  0.00    +0.000 C 
ATOM     21  C19 DHT A 931      26.472   3.772   6.415  0.00  0.00    +0.000 C 
ENDROOT
TORSDOF 0
