REMARK  Name = ligand_pdbs\DMS.pdb
REMARK  0 active torsions:
REMARK  status: ('A' for Active; 'I' for Inactive)
REMARK                            x       y       z     vdW  Elec       q    Type
REMARK                         _______ _______ _______ _____ _____    ______ ____
ROOT
ATOM      1  S   DMS A 701     -24.036 -86.147  -8.779  0.00  0.00    +0.000 S 
ATOM      2  O   DMS A 701     -22.901 -86.730  -9.540  0.00  0.00    +0.000 OA
ATOM      3  C1  DMS A 701     -25.454 -86.987  -9.220  0.00  0.00    +0.000 C 
ATOM      4  C2  DMS A 701     -23.939 -86.542  -7.115  0.00  0.00    +0.000 C 
ENDROOT
TORSDOF 0
