REMARK  Name = ligand_pdbs\DW9.pdb
REMARK  2 active torsions:
REMARK  status: ('A' for Active; 'I' for Inactive)
REMARK    1  A    between atoms: C4_4  and  S12_22
REMARK    2  A    between atoms: S12_22  and  S13_23
REMARK                            x       y       z     vdW  Elec       q    Type
REMARK                         _______ _______ _______ _____ _____    ______ ____
ROOT
ATOM      1  S12 DW9 A2103      -9.807   4.430   5.726  0.00  0.00    +0.000 S 
ENDROOT
BRANCH   1  12
ATOM      2  C14 DW9 A2103      -8.669   7.440   5.146  0.00  0.00    +0.000 C 
ATOM      3  C15 DW9 A2103      -8.650   7.917   6.458  0.00  0.00    +0.000 C 
ATOM      4  C16 DW9 A2103      -8.206   9.213   6.651  0.00  0.00    +0.000 C 
ATOM      5  C17 DW9 A2103      -7.764   9.963   5.523  0.00  0.00    +0.000 C 
ATOM      6  C18 DW9 A2103      -7.757   9.409   4.246  0.00  0.00    +0.000 C 
ATOM      7  C19 DW9 A2103      -8.195   8.135   4.061  0.00  0.00    +0.000 C 
ATOM      8  C21 DW9 A2103      -6.913  11.772   4.389  0.00  0.00    +0.000 C 
ATOM      9  N20 DW9 A2103      -7.286  11.261   5.574  0.00  0.00    +0.000 NA
ATOM     10  N24 DW9 A2103      -6.391  13.102   4.199  0.00  0.00    +0.000 NA
ATOM     11  O23 DW9 A2103      -8.210   9.773   7.950  0.00  0.00    +0.000 OA
ATOM     12  S13 DW9 A2103      -9.145   5.787   4.705  0.00  0.00    +0.000 S 
ATOM     13  S22 DW9 A2103      -7.139  10.589   3.191  0.00  0.00    +0.000 S 
ENDBRANCH   1  12
BRANCH   1  17
ATOM     14  C1  DW9 A2103     -12.596   4.761   9.207  0.00  0.00    +0.000 C 
ATOM     15  C2  DW9 A2103     -11.262   5.044   9.506  0.00  0.00    +0.000 C 
ATOM     16  C3  DW9 A2103     -10.261   4.988   8.530  0.00  0.00    +0.000 C 
ATOM     17  C4  DW9 A2103     -10.689   4.616   7.258  0.00  0.00    +0.000 C 
ATOM     18  C5  DW9 A2103     -12.013   4.354   6.948  0.00  0.00    +0.000 C 
ATOM     19  C6  DW9 A2103     -12.979   4.414   7.905  0.00  0.00    +0.000 C 
ATOM     20  C8  DW9 A2103     -12.931   5.207  11.453  0.00  0.00    +0.000 C 
ATOM     21  N7  DW9 A2103     -13.467   4.861  10.291  0.00  0.00    +0.000 NA
ATOM     22  N10 DW9 A2103     -13.653   5.371  12.702  0.00  0.00    +0.000 NA
ATOM     23  O11 DW9 A2103     -14.300   4.120   7.566  0.00  0.00    +0.000 OA
ATOM     24  S9  DW9 A2103     -11.270   5.415  11.173  0.00  0.00    +0.000 S 
ENDBRANCH   1  17
TORSDOF 2
