REMARK  Name = ligand_pdbs\EDO.pdb
REMARK  1 active torsions:
REMARK  status: ('A' for Active; 'I' for Inactive)
REMARK    1  A    between atoms: C1_1  and  C2_3
REMARK                            x       y       z     vdW  Elec       q    Type
REMARK                         _______ _______ _______ _____ _____    ______ ____
ROOT
ATOM      1  C1  EDO A 301      29.300 -14.719  47.871  0.00  0.00    +0.000 C 
ATOM      2  O1  EDO A 301      30.201 -13.784  48.453  0.00  0.00    +0.000 OA
ENDROOT
BRANCH   1   3
ATOM      3  C2  EDO A 301      28.272 -15.157  48.904  0.00  0.00    +0.000 C 
ATOM      4  O2  EDO A 301      27.535 -14.029  49.359  0.00  0.00    +0.000 OA
ENDBRANCH   1   3
TORSDOF 1
