REMARK  Name = ligand_pdbs\ENM.pdb
REMARK  5 active torsions:
REMARK  status: ('A' for Active; 'I' for Inactive)
REMARK    1  A    between atoms: C22_8  and  C21_9
REMARK    2  A    between atoms: C21_9  and  O03_10
REMARK    3  A    between atoms: O03_10  and  C20_11
REMARK    4  A    between atoms: C20_11  and  C19_12
REMARK    5  A    between atoms: C19_12  and  C12_13
REMARK                            x       y       z     vdW  Elec       q    Type
REMARK                         _______ _______ _______ _____ _____    ______ ____
ROOT
ATOM      1  C12 ENM A 302      29.116   0.402   4.625  0.00  0.00    +0.000 C 
ATOM      2  C13 ENM A 302      29.698   1.815   4.385  0.00  0.00    +0.000 C 
ATOM      3  C14 ENM A 302      28.703   2.890   4.930  0.00  0.00    +0.000 C 
ATOM      4  C10 ENM A 302      27.292   2.748   4.271  0.00  0.00    +0.000 C 
ATOM      5  C05 ENM A 302      26.270   3.831   4.749  0.00  0.00    +0.000 C 
ATOM      6  C18 ENM A 302      26.030   3.705   6.279  0.00  0.00    +0.000 C 
ATOM      7  C06 ENM A 302      26.836   5.246   4.422  0.00  0.00    +0.000 C 
ATOM      8  C01 ENM A 302      25.835   6.382   4.749  0.00  0.00    +0.000 C 
ATOM      9  C02 ENM A 302      24.467   6.096   4.115  0.00  0.00    +0.000 C 
ATOM     10  O02 ENM A 302      23.874   6.973   3.485  0.00  0.00    +0.000 OA
ATOM     11  C03 ENM A 302      23.863   4.693   4.266  0.00  0.00    +0.000 C 
ATOM     12  C04 ENM A 302      24.932   3.621   3.955  0.00  0.00    +0.000 C 
ATOM     13  C07 ENM A 302      24.357   2.204   4.170  0.00  0.00    +0.000 C 
ATOM     14  C08 ENM A 302      25.372   1.144   3.705  0.00  0.00    +0.000 C 
ATOM     15  C09 ENM A 302      26.725   1.293   4.450  0.00  0.00    +0.000 C 
ATOM     16  C11 ENM A 302      27.773   0.307   3.896  0.00  0.00    +0.000 C 
ATOM     17  C15 ENM A 302      27.424  -1.182   3.925  0.00  0.00    +0.000 C 
ATOM     18  C16 ENM A 302      28.802  -1.863   3.713  0.00  0.00    +0.000 C 
ATOM     19  C17 ENM A 302      29.856  -0.739   3.919  0.00  0.00    +0.000 C 
ATOM     20  O01 ENM A 302      30.990  -1.210   4.658  0.00  0.00    +0.000 OA
ENDROOT
BRANCH   1  21
ATOM     21  C19 ENM A 302      28.934   0.074   6.151  0.00  0.00    +0.000 C 
BRANCH  21  22
ATOM     22  C20 ENM A 302      30.073   0.624   7.030  0.00  0.00    +0.000 C 
BRANCH  22  23
ATOM     23  O03 ENM A 302      29.686   0.371   8.384  0.00  0.00    +0.000 OA
BRANCH  23  24
ATOM     24  C21 ENM A 302      30.550   1.017   9.330  0.00  0.00    +0.000 C 
BRANCH  24  32
ATOM     25  C23 ENM A 302      30.515   2.134  11.497  0.00  0.00    +0.000 A 
ATOM     26  C24 ENM A 302      30.003   2.210  12.812  0.00  0.00    +0.000 A 
ATOM     27  F2  ENM A 302      30.323   3.257  13.615  0.00  0.00    +0.000 F 
ATOM     28  C25 ENM A 302      29.126   1.223  13.284  0.00  0.00    +0.000 A 
ATOM     29  C26 ENM A 302      28.754   0.160  12.448  0.00  0.00    +0.000 A 
ATOM     30  F1  ENM A 302      27.878  -0.767  12.890  0.00  0.00    +0.000 F 
ATOM     31  C27 ENM A 302      29.260   0.079  11.142  0.00  0.00    +0.000 A 
ATOM     32  C22 ENM A 302      30.136   1.066  10.660  0.00  0.00    +0.000 A 
ENDBRANCH  24  32
ENDBRANCH  23  24
ENDBRANCH  22  23
ENDBRANCH  21  22
ENDBRANCH   1  21
TORSDOF 5
