REMARK  Name = ligand_pdbs\F2X.pdb
REMARK  0 active torsions:
REMARK  status: ('A' for Active; 'I' for Inactive)
REMARK                            x       y       z     vdW  Elec       q    Type
REMARK                         _______ _______ _______ _____ _____    ______ ____
ROOT
ATOM      1  O2  F2X C1101     -13.680   1.448  25.841  0.00  0.00    +0.000 OA
ATOM      2  C4  F2X C1101     -13.395   2.243  24.985  0.00  0.00    +0.000 C 
ATOM      3  C3  F2X C1101     -14.161   3.529  24.918  0.00  0.00    +0.000 C 
ATOM      4  C11 F2X C1101     -15.595   3.188  25.289  0.00  0.00    +0.000 C 
ATOM      5  C7  F2X C1101     -14.128   4.273  23.579  0.00  0.00    +0.000 C 
ATOM      6  C5  F2X C1101     -12.880   3.976  22.794  0.00  0.00    +0.000 C 
ATOM      7  O3  F2X C1101     -12.547   4.789  21.972  0.00  0.00    +0.000 OA
ATOM      8  C1  F2X C1101     -12.299   1.936  24.043  0.00  0.00    +0.000 A 
ATOM      9  C2  F2X C1101     -12.045   2.757  22.986  0.00  0.00    +0.000 A 
ATOM     10  C8  F2X C1101     -11.521   0.819  24.221  0.00  0.00    +0.000 A 
ATOM     11  C10 F2X C1101     -10.497   0.546  23.326  0.00  0.00    +0.000 A 
ATOM     12  C9  F2X C1101     -10.243   1.370  22.249  0.00  0.00    +0.000 A 
ATOM     13  C6  F2X C1101     -11.038   2.489  22.093  0.00  0.00    +0.000 A 
ATOM     14  O1  F2X C1101     -10.804   3.315  21.052  0.00  0.00    +0.000 OA
ENDROOT
TORSDOF 0
