REMARK  Name = ligand_pdbs\F5J.pdb
REMARK  3 active torsions:
REMARK  status: ('A' for Active; 'I' for Inactive)
REMARK    1  A    between atoms: C10_10  and  C17_17
REMARK    2  A    between atoms: C15_15  and  C17_17
REMARK    3  A    between atoms: C16_16  and  N20_20
REMARK                            x       y       z     vdW  Elec       q    Type
REMARK                         _______ _______ _______ _____ _____    ______ ____
ROOT
ATOM      1  C13 F5J A 701     -32.543 -39.116  -3.617  0.00  0.00    +0.000 C 
ATOM      2  C14 F5J A 701     -33.949 -38.854  -3.057  0.00  0.00    +0.000 C 
ATOM      3  C15 F5J A 701     -32.464 -38.232  -4.863  0.00  0.00    +0.000 C 
ATOM      4  C16 F5J A 701     -34.273 -37.473  -3.594  0.00  0.00    +0.000 C 
ATOM      5  O22 F5J A 701     -33.723 -37.510  -4.908  0.00  0.00    +0.000 OA
ATOM      6  O23 F5J A 701     -31.500 -38.706  -2.726  0.00  0.00    +0.000 OA
ATOM      7  O24 F5J A 701     -34.041 -38.969  -1.641  0.00  0.00    +0.000 OA
ENDROOT
BRANCH   4  16
ATOM      8  C7  F5J A 701     -36.524 -38.003  -4.512  0.00  0.00    +0.000 C 
ATOM      9  C6  F5J A 701     -37.801 -37.452  -4.490  0.00  0.00    +0.000 C 
ATOM     10  C8  F5J A 701     -36.817 -34.199  -2.294  0.00  0.00    +0.000 C 
ATOM     11  C9  F5J A 701     -37.711 -36.232  -3.782  0.00  0.00    +0.000 C 
ATOM     12  C11 F5J A 701     -36.377 -36.099  -3.361  0.00  0.00    +0.000 C 
ATOM     13  C12 F5J A 701     -38.594 -35.221  -3.413  0.00  0.00    +0.000 C 
ATOM     14  N18 F5J A 701     -35.869 -35.115  -2.575  0.00  0.00    +0.000 NA
ATOM     15  N19 F5J A 701     -38.116 -34.173  -2.704  0.00  0.00    +0.000 NA
ATOM     16  N20 F5J A 701     -35.672 -37.193  -3.817  0.00  0.00    +0.000 N 
ATOM     17  N21 F5J A 701     -39.951 -35.229  -3.805  0.00  0.00    +0.000 NA
ENDBRANCH   4  16
BRANCH   3  18
ATOM     18  C17 F5J A 701     -32.260 -39.018  -6.154  0.00  0.00    +0.000 C 
ATOM     19  O25 F5J A 701     -33.283 -40.008  -6.297  0.00  0.00    +0.000 OA
BRANCH  18  25
ATOM     20  C1  F5J A 701     -28.424 -41.024  -6.178  0.00  0.00    +0.000 A 
ATOM     21  C5  F5J A 701     -29.750 -38.969  -6.161  0.00  0.00    +0.000 A 
ATOM     22  C4  F5J A 701     -30.856 -41.123  -6.181  0.00  0.00    +0.000 A 
ATOM     23  C3  F5J A 701     -28.504 -39.622  -6.173  0.00  0.00    +0.000 A 
ATOM     24  C2  F5J A 701     -29.607 -41.775  -6.184  0.00  0.00    +0.000 A 
ATOM     25  C10 F5J A 701     -30.930 -39.720  -6.167  0.00  0.00    +0.000 A 
ENDBRANCH  18  25
ENDBRANCH   3  18
TORSDOF 3
