REMARK  Name = ligand_pdbs\FAK.pdb
REMARK  7 active torsions:
REMARK  status: ('A' for Active; 'I' for Inactive)
REMARK    1  A    between atoms: CA_2  and  C_3
REMARK    2  A    between atoms: CA_2  and  CB_5
REMARK    3  A    between atoms: CB_5  and  CG_6
REMARK    4  A    between atoms: CG_6  and  CD_7
REMARK    5  A    between atoms: CD_7  and  CE_8
REMARK    6  A    between atoms: CE_8  and  NZ_9
REMARK    7  A    between atoms: CH_10  and  CT_12
REMARK                            x       y       z     vdW  Elec       q    Type
REMARK                         _______ _______ _______ _____ _____    ______ ____
ROOT
ATOM      1  CE  FAK C1008      11.524  24.685 -16.217  0.00  0.00    +0.000 C 
ENDROOT
BRANCH   1   2
ATOM      2  NZ  FAK C1008      10.366  23.785 -16.236  0.00  0.00    +0.000 NA
ATOM      3  CH  FAK C1008       9.154  24.217 -15.801  0.00  0.00    +0.000 C 
ATOM      4  OH  FAK C1008       8.887  25.351 -15.389  0.00  0.00    +0.000 OA
BRANCH   3   5
ATOM      5  CT  FAK C1008       8.022  23.145 -15.829  0.00  0.00    +0.000 C 
ATOM      6  FI1 FAK C1008       7.429  23.089 -14.547  0.00  0.00    +0.000 F 
ATOM      7  FI2 FAK C1008       8.551  21.781 -16.185  0.00  0.00    +0.000 F 
ATOM      8  FI3 FAK C1008       7.126  23.506 -16.698  0.00  0.00    +0.000 F 
ENDBRANCH   3   5
ENDBRANCH   1   2
BRANCH   1   9
ATOM      9  CD  FAK C1008      12.505  24.128 -17.226  0.00  0.00    +0.000 C 
BRANCH   9  10
ATOM     10  CG  FAK C1008      13.722  25.042 -17.180  0.00  0.00    +0.000 C 
BRANCH  10  11
ATOM     11  CB  FAK C1008      14.865  24.201 -17.695  0.00  0.00    +0.000 C 
BRANCH  11  13
ATOM     12  N   FAK C1008      17.258  24.312 -18.185  0.00  0.00    +0.000 NA
ATOM     13  CA  FAK C1008      16.084  25.086 -17.804  0.00  0.00    +0.000 C 
BRANCH  13  14
ATOM     14  C   FAK C1008      16.460  25.669 -16.445  0.00  0.00    +0.000 C 
ATOM     15  O   FAK C1008      16.695  24.923 -15.479  0.00  0.00    +0.000 OA
ENDBRANCH  13  14
ENDBRANCH  11  13
ENDBRANCH  10  11
ENDBRANCH   9  10
ENDBRANCH   1   9
TORSDOF 7
