REMARK  Name = ligand_pdbs\FE.pdb
REMARK  0 active torsions:
REMARK  status: ('A' for Active; 'I' for Inactive)
REMARK                            x       y       z     vdW  Elec       q    Type
REMARK                         _______ _______ _______ _____ _____    ______ ____
ROOT
ATOM      1 FE   FE  A 201     102.759  75.650 139.729  0.00  0.00    +0.000 Fe
ENDROOT
TORSDOF 0
