REMARK  Name = ligand_pdbs\FHM.pdb
REMARK  7 active torsions:
REMARK  status: ('A' for Active; 'I' for Inactive)
REMARK    1  A    between atoms: C16_7  and  O14_8
REMARK    2  A    between atoms: O14_8  and  C13_9
REMARK    3  A    between atoms: C13_9  and  C11_10
REMARK    4  A    between atoms: C11_10  and  C10_13
REMARK    5  A    between atoms: N9_15  and  C6_16
REMARK    6  A    between atoms: C3_20  and  N8_21
REMARK    7  A    between atoms: C4_24  and  C7_25
REMARK                            x       y       z     vdW  Elec       q    Type
REMARK                         _______ _______ _______ _____ _____    ______ ____
ROOT
ATOM      1  C10 FHM A   1      28.371   1.448   3.991  0.00  0.00    +0.000 C 
ATOM      2  O10 FHM A   1      27.292   0.875   4.135  0.00  0.00    +0.000 OA
ATOM      3  N9  FHM A   1      28.518   2.753   3.767  0.00  0.00    +0.000 NA
ENDROOT
BRANCH   3   4
ATOM      4  C6  FHM A   1      27.538   3.653   3.688  0.00  0.00    +0.000 A 
ATOM      5  C5  FHM A   1      26.200   3.351   3.929  0.00  0.00    +0.000 A 
ATOM      6  C1  FHM A   1      27.883   4.977   3.439  0.00  0.00    +0.000 A 
ATOM      7  C2  FHM A   1      26.898   5.960   3.448  0.00  0.00    +0.000 A 
ATOM      8  C3  FHM A   1      25.565   5.651   3.710  0.00  0.00    +0.000 A 
ATOM      9  C4  FHM A   1      25.196   4.322   3.945  0.00  0.00    +0.000 A 
BRANCH   9  10
ATOM     10  C7  FHM A   1      23.743   3.884   4.208  0.00  0.00    +0.000 C 
ATOM     11  F2  FHM A   1      23.374   4.226   5.440  0.00  0.00    +0.000 F 
ATOM     12  F3  FHM A   1      22.878   4.411   3.345  0.00  0.00    +0.000 F 
ATOM     13  F1  FHM A   1      23.588   2.568   4.101  0.00  0.00    +0.000 F 
ENDBRANCH   9  10
BRANCH   8  14
ATOM     14  N8  FHM A   1      24.718   6.681   3.742  0.00  0.00    +0.000 N 
ATOM     15  O2  FHM A   1      23.359   6.558   4.133  0.00  0.00    +0.000 OA
ATOM     16  O1  FHM A   1      25.199   7.992   3.479  0.00  0.00    +0.000 OA
ENDBRANCH   8  14
ENDBRANCH   3   4
BRANCH   1  17
ATOM     17  C11 FHM A   1      29.684   0.663   4.051  0.00  0.00    +0.000 C 
ATOM     18  O11 FHM A   1      30.773   1.527   3.718  0.00  0.00    +0.000 OA
ATOM     19  C12 FHM A   1      29.635  -0.515   3.075  0.00  0.00    +0.000 C 
BRANCH  17  20
ATOM     20  C13 FHM A   1      29.880   0.148   5.468  0.00  0.00    +0.000 C 
BRANCH  20  21
ATOM     21  O14 FHM A   1      29.898   1.277   6.357  0.00  0.00    +0.000 OA
BRANCH  21  28
ATOM     22  C17 FHM A   1      30.058  -0.216   8.247  0.00  0.00    +0.000 A 
ATOM     23  C18 FHM A   1      29.818  -0.457   9.598  0.00  0.00    +0.000 A 
ATOM     24  C19 FHM A   1      29.179   0.504  10.376  0.00  0.00    +0.000 A 
ATOM     25  F19 FHM A   1      28.952   0.274  11.686  0.00  0.00    +0.000 F 
ATOM     26  C20 FHM A   1      28.778   1.705   9.799  0.00  0.00    +0.000 A 
ATOM     27  C21 FHM A   1      29.020   1.943   8.449  0.00  0.00    +0.000 A 
ATOM     28  C16 FHM A   1      29.661   0.987   7.666  0.00  0.00    +0.000 A 
ENDBRANCH  21  28
ENDBRANCH  20  21
ENDBRANCH  17  20
ENDBRANCH   1  17
TORSDOF 7
