REMARK  Name = ligand_pdbs\GDP.pdb
REMARK  6 active torsions:
REMARK  status: ('A' for Active; 'I' for Inactive)
REMARK    1  A    between atoms: PB_1  and  O3A_5
REMARK    2  A    between atoms: O3A_5  and  PA_6
REMARK    3  A    between atoms: PA_6  and  O5'_9
REMARK    4  A    between atoms: O5'_9  and  C5'_10
REMARK    5  A    between atoms: C5'_10  and  C4'_11
REMARK    6  A    between atoms: C1'_17  and  N9_18
REMARK                            x       y       z     vdW  Elec       q    Type
REMARK                         _______ _______ _______ _____ _____    ______ ____
ROOT
ATOM      1  C4' GDP A1250       2.352   4.582 -20.325  0.00  0.00    +0.000 C 
ATOM      2  O4' GDP A1250       3.618   4.180 -20.854  0.00  0.00    +0.000 OA
ATOM      3  C3' GDP A1250       1.993   5.879 -21.035  0.00  0.00    +0.000 C 
ATOM      4  O3' GDP A1250       2.399   6.918 -20.141  0.00  0.00    +0.000 OA
ATOM      5  C2' GDP A1250       2.874   5.773 -22.285  0.00  0.00    +0.000 C 
ATOM      6  O2' GDP A1250       3.246   7.032 -22.893  0.00  0.00    +0.000 OA
ATOM      7  C1' GDP A1250       4.093   5.071 -21.812  0.00  0.00    +0.000 C 
ENDROOT
BRANCH   7   8
ATOM      8  N9  GDP A1250       4.790   4.285 -22.796  0.00  0.00    +0.000 N 
ATOM      9  C8  GDP A1250       4.335   3.357 -23.639  0.00  0.00    +0.000 C 
ATOM     10  N7  GDP A1250       5.219   2.821 -24.407  0.00  0.00    +0.000 NA
ATOM     11  C5  GDP A1250       6.373   3.438 -24.053  0.00  0.00    +0.000 C 
ATOM     12  C6  GDP A1250       7.750   3.287 -24.536  0.00  0.00    +0.000 C 
ATOM     13  O6  GDP A1250       8.218   2.535 -25.414  0.00  0.00    +0.000 OA
ATOM     14  N1  GDP A1250       8.646   4.156 -23.870  0.00  0.00    +0.000 NA
ATOM     15  C2  GDP A1250       8.296   5.042 -22.881  0.00  0.00    +0.000 C 
ATOM     16  N2  GDP A1250       9.256   5.781 -22.371  0.00  0.00    +0.000 NA
ATOM     17  N3  GDP A1250       7.007   5.169 -22.434  0.00  0.00    +0.000 NA
ATOM     18  C4  GDP A1250       6.113   4.347 -23.058  0.00  0.00    +0.000 C 
ENDBRANCH   7   8
BRANCH   1  19
ATOM     19  C5' GDP A1250       1.262   3.521 -20.382  0.00  0.00    +0.000 C 
BRANCH  19  20
ATOM     20  O5' GDP A1250       0.864   3.120 -21.641  0.00  0.00    +0.000 OA
BRANCH  20  21
ATOM     21  PA  GDP A1250      -0.472   2.317 -21.752  0.00  0.00    +0.000 P 
ATOM     22  O1A GDP A1250      -0.653   2.048 -23.182  0.00  0.00    +0.000 OA
ATOM     23  O2A GDP A1250      -1.582   2.968 -21.052  0.00  0.00    +0.000 OA
BRANCH  21  24
ATOM     24  O3A GDP A1250      -0.090   0.904 -21.137  0.00  0.00    +0.000 OA
BRANCH  24  25
ATOM     25  PB  GDP A1250      -1.213  -0.200 -20.817  0.00  0.00    +0.000 P 
ATOM     26  O1B GDP A1250      -0.894  -1.494 -21.391  0.00  0.00    +0.000 OA
ATOM     27  O2B GDP A1250      -2.590   0.280 -21.116  0.00  0.00    +0.000 OA
ATOM     28  O3B GDP A1250      -0.995  -0.222 -19.303  0.00  0.00    +0.000 OA
ENDBRANCH  24  25
ENDBRANCH  21  24
ENDBRANCH  20  21
ENDBRANCH  19  20
ENDBRANCH   1  19
TORSDOF 6
