REMARK  Name = ligand_pdbs\GNP.pdb
REMARK  8 active torsions:
REMARK  status: ('A' for Active; 'I' for Inactive)
REMARK    1  A    between atoms: PG_1  and  N3B_5
REMARK    2  A    between atoms: N3B_5  and  PB_6
REMARK    3  A    between atoms: PB_6  and  O3A_9
REMARK    4  A    between atoms: O3A_9  and  PA_10
REMARK    5  A    between atoms: PA_10  and  O5'_13
REMARK    6  A    between atoms: O5'_13  and  C5'_14
REMARK    7  A    between atoms: C5'_14  and  C4'_15
REMARK    8  A    between atoms: C1'_21  and  N9_22
REMARK                            x       y       z     vdW  Elec       q    Type
REMARK                         _______ _______ _______ _____ _____    ______ ____
ROOT
ATOM      1  C4' GNP A 250      -6.501  -6.424  29.779  0.00  0.00    +0.000 C 
ATOM      2  O4' GNP A 250      -6.016  -5.082  29.620  0.00  0.00    +0.000 OA
ATOM      3  C3' GNP A 250      -8.005  -6.310  30.118  0.00  0.00    +0.000 C 
ATOM      4  O3' GNP A 250      -8.193  -6.351  31.533  0.00  0.00    +0.000 OA
ATOM      5  C2' GNP A 250      -8.348  -4.911  29.580  0.00  0.00    +0.000 C 
ATOM      6  O2' GNP A 250      -9.459  -4.338  30.285  0.00  0.00    +0.000 OA
ATOM      7  C1' GNP A 250      -7.066  -4.158  29.911  0.00  0.00    +0.000 C 
ENDROOT
BRANCH   7   8
ATOM      8  N9  GNP A 250      -6.919  -2.942  29.080  0.00  0.00    +0.000 N 
ATOM      9  C8  GNP A 250      -6.798  -2.832  27.695  0.00  0.00    +0.000 C 
ATOM     10  N7  GNP A 250      -6.747  -1.619  27.250  0.00  0.00    +0.000 NA
ATOM     11  C5  GNP A 250      -6.499  -0.864  28.415  0.00  0.00    +0.000 C 
ATOM     12  C6  GNP A 250      -6.146   0.541  28.597  0.00  0.00    +0.000 C 
ATOM     13  O6  GNP A 250      -5.973   1.407  27.743  0.00  0.00    +0.000 OA
ATOM     14  N1  GNP A 250      -6.002   0.889  29.949  0.00  0.00    +0.000 NA
ATOM     15  C2  GNP A 250      -6.185   0.045  31.027  0.00  0.00    +0.000 C 
ATOM     16  N2  GNP A 250      -6.044   0.537  32.273  0.00  0.00    +0.000 NA
ATOM     17  N3  GNP A 250      -6.505  -1.289  30.867  0.00  0.00    +0.000 NA
ATOM     18  C4  GNP A 250      -6.634  -1.675  29.549  0.00  0.00    +0.000 C 
ENDBRANCH   7   8
BRANCH   1  19
ATOM     19  C5' GNP A 250      -6.191  -7.264  28.517  0.00  0.00    +0.000 C 
BRANCH  19  20
ATOM     20  O5' GNP A 250      -6.854  -6.709  27.341  0.00  0.00    +0.000 OA
BRANCH  20  21
ATOM     21  PA  GNP A 250      -7.134  -7.632  26.035  0.00  0.00    +0.000 P 
ATOM     22  O1A GNP A 250      -7.912  -6.831  25.040  0.00  0.00    +0.000 OA
ATOM     23  O2A GNP A 250      -7.698  -8.948  26.454  0.00  0.00    +0.000 OA
BRANCH  21  24
ATOM     24  O3A GNP A 250      -5.628  -7.835  25.500  0.00  0.00    +0.000 OA
BRANCH  24  25
ATOM     25  PB  GNP A 250      -5.122  -8.656  24.209  0.00  0.00    +0.000 P 
ATOM     26  O1B GNP A 250      -4.051  -7.841  23.670  0.00  0.00    +0.000 OA
ATOM     27  O2B GNP A 250      -6.296  -8.685  23.327  0.00  0.00    +0.000 OA
BRANCH  25  28
ATOM     28  N3B GNP A 250      -4.646 -10.123  24.789  0.00  0.00    +0.000 NA
BRANCH  28  29
ATOM     29  PG  GNP A 250      -4.490 -11.433  23.838  0.00  0.00    +0.000 P 
ATOM     30  O1G GNP A 250      -5.697 -11.807  23.135  0.00  0.00    +0.000 OA
ATOM     31  O2G GNP A 250      -3.361 -11.359  22.910  0.00  0.00    +0.000 OA
ATOM     32  O3G GNP A 250      -4.198 -12.673  24.706  0.00  0.00    +0.000 OA
ENDBRANCH  28  29
ENDBRANCH  25  28
ENDBRANCH  24  25
ENDBRANCH  21  24
ENDBRANCH  20  21
ENDBRANCH  19  20
ENDBRANCH   1  19
TORSDOF 8
