REMARK  Name = ligand_pdbs\GTP.pdb
REMARK  8 active torsions:
REMARK  status: ('A' for Active; 'I' for Inactive)
REMARK    1  A    between atoms: PG_1  and  O3B_5
REMARK    2  A    between atoms: O3B_5  and  PB_6
REMARK    3  A    between atoms: PB_6  and  O3A_9
REMARK    4  A    between atoms: O3A_9  and  PA_10
REMARK    5  A    between atoms: PA_10  and  O5'_13
REMARK    6  A    between atoms: O5'_13  and  C5'_14
REMARK    7  A    between atoms: C5'_14  and  C4'_15
REMARK    8  A    between atoms: C1'_21  and  N9_22
REMARK                            x       y       z     vdW  Elec       q    Type
REMARK                         _______ _______ _______ _____ _____    ______ ____
ROOT
ATOM      1  C4' GTP C 217      35.967-102.149 -36.737  0.00  0.00    +0.000 C 
ATOM      2  O4' GTP C 217      37.056-101.574 -36.064  0.00  0.00    +0.000 OA
ATOM      3  C3' GTP C 217      34.723-101.776 -35.951  0.00  0.00    +0.000 C 
ATOM      4  O3' GTP C 217      34.465-102.793 -35.000  0.00  0.00    +0.000 OA
ATOM      5  C2' GTP C 217      35.138-100.544 -35.203  0.00  0.00    +0.000 C 
ATOM      6  O2' GTP C 217      34.474-100.505 -33.964  0.00  0.00    +0.000 OA
ATOM      7  C1' GTP C 217      36.640-100.725 -35.026  0.00  0.00    +0.000 C 
ENDROOT
BRANCH   7   8
ATOM      8  N9  GTP C 217      37.290 -99.416 -35.199  0.00  0.00    +0.000 N 
ATOM      9  C8  GTP C 217      37.309 -98.634 -36.321  0.00  0.00    +0.000 C 
ATOM     10  N7  GTP C 217      38.033 -97.523 -36.048  0.00  0.00    +0.000 NA
ATOM     11  C5  GTP C 217      38.494 -97.604 -34.773  0.00  0.00    +0.000 C 
ATOM     12  C6  GTP C 217      39.274 -96.756 -33.985  0.00  0.00    +0.000 C 
ATOM     13  O6  GTP C 217      39.701 -95.685 -34.425  0.00  0.00    +0.000 OA
ATOM     14  N1  GTP C 217      39.575 -97.128 -32.693  0.00  0.00    +0.000 NA
ATOM     15  C2  GTP C 217      39.107 -98.327 -32.192  0.00  0.00    +0.000 C 
ATOM     16  N2  GTP C 217      39.384 -98.696 -30.951  0.00  0.00    +0.000 NA
ATOM     17  N3  GTP C 217      38.337 -99.155 -32.975  0.00  0.00    +0.000 NA
ATOM     18  C4  GTP C 217      38.034 -98.795 -34.240  0.00  0.00    +0.000 C 
ENDBRANCH   7   8
BRANCH   1  19
ATOM     19  C5' GTP C 217      35.991-101.501 -38.105  0.00  0.00    +0.000 C 
BRANCH  19  20
ATOM     20  O5' GTP C 217      34.853-101.865 -38.826  0.00  0.00    +0.000 OA
BRANCH  20  21
ATOM     21  PA  GTP C 217      34.735-101.356 -40.341  0.00  0.00    +0.000 P 
ATOM     22  O1A GTP C 217      33.330-101.655 -40.819  0.00  0.00    +0.000 OA
ATOM     23  O2A GTP C 217      35.101 -99.897 -40.498  0.00  0.00    +0.000 OA
BRANCH  21  24
ATOM     24  O3A GTP C 217      35.776-102.287 -41.111  0.00  0.00    +0.000 OA
BRANCH  24  25
ATOM     25  PB  GTP C 217      36.230-101.929 -42.601  0.00  0.00    +0.000 P 
ATOM     26  O1B GTP C 217      35.162-101.126 -43.301  0.00  0.00    +0.000 OA
ATOM     27  O2B GTP C 217      37.564-101.214 -42.567  0.00  0.00    +0.000 OA
BRANCH  25  28
ATOM     28  O3B GTP C 217      36.399-103.407 -43.210  0.00  0.00    +0.000 OA
BRANCH  28  29
ATOM     29  PG  GTP C 217      35.570-103.901 -44.497  0.00  0.00    +0.000 P 
ATOM     30  O1G GTP C 217      34.317-103.061 -44.594  0.00  0.00    +0.000 OA
ATOM     31  O2G GTP C 217      35.299-105.379 -44.322  0.00  0.00    +0.000 OA
ATOM     32  O3G GTP C 217      36.380-103.760 -45.764  0.00  0.00    +0.000 OA
ENDBRANCH  28  29
ENDBRANCH  25  28
ENDBRANCH  24  25
ENDBRANCH  21  24
ENDBRANCH  20  21
ENDBRANCH  19  20
ENDBRANCH   1  19
TORSDOF 8
