REMARK  Name = ligand_pdbs\HFT.pdb
REMARK  4 active torsions:
REMARK  status: ('A' for Active; 'I' for Inactive)
REMARK    1  A    between atoms: C7_2  and  C3_5
REMARK    2  A    between atoms: C4_7  and  N1_8
REMARK    3  A    between atoms: C1_13  and  N9_14
REMARK    4  A    between atoms: C10_15  and  C11_17
REMARK                            x       y       z     vdW  Elec       q    Type
REMARK                         _______ _______ _______ _____ _____    ______ ____
ROOT
ATOM      1  C3  HFT A   1      25.321   4.152   4.166  0.00  0.00    +0.000 A 
ATOM      2  C2  HFT A   1      26.320   3.175   4.156  0.00  0.00    +0.000 A 
ATOM      3  C4  HFT A   1      25.693   5.471   3.892  0.00  0.00    +0.000 A 
ATOM      4  C5  HFT A   1      27.021   5.770   3.599  0.00  0.00    +0.000 A 
ATOM      5  C6  HFT A   1      27.999   4.782   3.589  0.00  0.00    +0.000 A 
ATOM      6  C1  HFT A   1      27.652   3.467   3.875  0.00  0.00    +0.000 A 
ENDROOT
BRANCH   1   8
ATOM      7  F1  HFT A   1      23.705   2.410   4.294  0.00  0.00    +0.000 F 
ATOM      8  C7  HFT A   1      23.863   3.724   4.420  0.00  0.00    +0.000 C 
ATOM      9  F2  HFT A   1      23.493   4.035   5.659  0.00  0.00    +0.000 F 
ATOM     10  F3  HFT A   1      23.017   4.271   3.552  0.00  0.00    +0.000 F 
ENDBRANCH   1   8
BRANCH   3  11
ATOM     11  N1  HFT A   1      24.875   6.516   4.020  0.00  0.00    +0.000 N 
ATOM     12  O2  HFT A   1      25.325   7.805   3.628  0.00  0.00    +0.000 OA
ATOM     13  O1  HFT A   1      23.539   6.405   4.487  0.00  0.00    +0.000 OA
ENDBRANCH   3  11
BRANCH   6  14
ATOM     14  N9  HFT A   1      28.629   2.559   3.892  0.00  0.00    +0.000 NA
ATOM     15  C10 HFT A   1      28.507   1.264   4.176  0.00  0.00    +0.000 C 
ATOM     16  O10 HFT A   1      27.453   0.705   4.478  0.00  0.00    +0.000 OA
BRANCH  15  17
ATOM     17  C11 HFT A   1      29.820   0.479   4.113  0.00  0.00    +0.000 C 
ATOM     18  C12 HFT A   1      30.184   0.002   5.520  0.00  0.00    +0.000 C 
ATOM     19  C13 HFT A   1      29.639  -0.721   3.181  0.00  0.00    +0.000 C 
ATOM     20  O11 HFT A   1      30.847   1.338   3.612  0.00  0.00    +0.000 OA
ENDBRANCH  15  17
ENDBRANCH   6  14
TORSDOF 4
