REMARK  Name = ligand_pdbs\HYQ.pdb
REMARK  2 active torsions:
REMARK  status: ('A' for Active; 'I' for Inactive)
REMARK    1  A    between atoms: N9_4  and  C14_5
REMARK    2  A    between atoms: C20_8  and  N23_9
REMARK                            x       y       z     vdW  Elec       q    Type
REMARK                         _______ _______ _______ _____ _____    ______ ____
ROOT
ATOM      1  C1  HYQ A 101      29.931   0.808   4.339  0.00  0.00    +0.000 C 
ATOM      2  C4  HYQ A 101      29.206   2.066   4.692  0.00  0.00    +0.000 C 
ATOM      3  O10 HYQ A 101      29.577   2.770   5.627  0.00  0.00    +0.000 OA
ATOM      4  N9  HYQ A 101      28.164   2.256   3.853  0.00  0.00    +0.000 N 
ATOM      5  C6  HYQ A 101      28.035   1.270   2.951  0.00  0.00    +0.000 C 
ATOM      6  O13 HYQ A 101      27.155   1.116   2.108  0.00  0.00    +0.000 OA
ATOM      7  C2  HYQ A 101      29.170   0.295   3.080  0.00  0.00    +0.000 C 
ATOM      8  C5  HYQ A 101      28.621  -1.135   3.314  0.00  0.00    +0.000 C 
ATOM      9  C12 HYQ A 101      27.726  -1.142   4.565  0.00  0.00    +0.000 C 
ATOM     10  C8  HYQ A 101      28.473  -0.650   5.797  0.00  0.00    +0.000 C 
ATOM     11  C3  HYQ A 101      29.918  -0.245   5.472  0.00  0.00    +0.000 C 
ATOM     12  C7  HYQ A 101      30.556  -1.523   4.909  0.00  0.00    +0.000 C 
ATOM     13  C11 HYQ A 101      29.801  -2.045   3.686  0.00  0.00    +0.000 C 
ENDROOT
BRANCH   4  14
ATOM     14  C14 HYQ A 101      27.414   3.394   3.812  0.00  0.00    +0.000 A 
ATOM     15  C16 HYQ A 101      28.165   4.614   3.482  0.00  0.00    +0.000 A 
ATOM     16  C19 HYQ A 101      27.481   5.880   3.526  0.00  0.00    +0.000 A 
ATOM     17  C20 HYQ A 101      26.050   5.911   3.829  0.00  0.00    +0.000 A 
ATOM     18  C17 HYQ A 101      25.243   4.733   4.097  0.00  0.00    +0.000 A 
ATOM     19  C21 HYQ A 101      23.797   4.785   4.327  0.00  0.00    +0.000 A 
ATOM     20  C24 HYQ A 101      23.040   3.544   4.561  0.00  0.00    +0.000 A 
ATOM     21  C22 HYQ A 101      23.724   2.241   4.581  0.00  0.00    +0.000 A 
ATOM     22  C18 HYQ A 101      25.187   2.164   4.373  0.00  0.00    +0.000 A 
ATOM     23  C15 HYQ A 101      25.966   3.380   4.104  0.00  0.00    +0.000 A 
BRANCH  17  24
ATOM     24  N23 HYQ A 101      25.479   7.130   3.778  0.00  0.00    +0.000 N 
ATOM     25  O26 HYQ A 101      24.571   7.400   2.822  0.00  0.00    +0.000 OA
ATOM     26  O25 HYQ A 101      25.904   8.195   4.533  0.00  0.00    +0.000 OA
ENDBRANCH  17  24
ENDBRANCH   4  14
TORSDOF 2
