REMARK  Name = ligand_pdbs\IHP.pdb
REMARK  12 active torsions:
REMARK  status: ('A' for Active; 'I' for Inactive)
REMARK    1  A    between atoms: C1_1  and  O11_7
REMARK    2  A    between atoms: C2_2  and  O12_12
REMARK    3  A    between atoms: C3_3  and  O13_17
REMARK    4  A    between atoms: C4_4  and  O14_22
REMARK    5  A    between atoms: C5_5  and  O15_27
REMARK    6  A    between atoms: C6_6  and  O16_32
REMARK    7  A    between atoms: O11_7  and  P1_8
REMARK    8  A    between atoms: O12_12  and  P2_13
REMARK    9  A    between atoms: O13_17  and  P3_18
REMARK   10  A    between atoms: O14_22  and  P4_23
REMARK   11  A    between atoms: O15_27  and  P5_28
REMARK   12  A    between atoms: O16_32  and  P6_33
REMARK                            x       y       z     vdW  Elec       q    Type
REMARK                         _______ _______ _______ _____ _____    ______ ____
ROOT
ATOM      1  C1  IHP A3000     265.748 229.231 221.120  0.00  0.00    +0.000 C 
ATOM      2  C2  IHP A3000     266.139 230.687 220.943  0.00  0.00    +0.000 C 
ATOM      3  C3  IHP A3000     267.478 230.794 220.230  0.00  0.00    +0.000 C 
ATOM      4  C4  IHP A3000     267.373 230.216 218.822  0.00  0.00    +0.000 C 
ATOM      5  C5  IHP A3000     266.562 228.902 218.691  0.00  0.00    +0.000 C 
ATOM      6  C6  IHP A3000     265.505 228.570 219.770  0.00  0.00    +0.000 C 
ENDROOT
BRANCH   1   7
ATOM      7  O11 IHP A3000     266.758 228.522 221.823  0.00  0.00    +0.000 OA
BRANCH   7   8
ATOM      8  P1  IHP A3000     266.327 227.454 222.947  0.00  0.00    +0.000 P 
ATOM      9  O21 IHP A3000     266.248 228.271 224.213  0.00  0.00    +0.000 OA
ATOM     10  O31 IHP A3000     267.442 226.438 222.915  0.00  0.00    +0.000 OA
ATOM     11  O41 IHP A3000     264.992 226.929 222.483  0.00  0.00    +0.000 OA
ENDBRANCH   7   8
ENDBRANCH   1   7
BRANCH   2  12
ATOM     12  O12 IHP A3000     266.176 231.356 222.202  0.00  0.00    +0.000 OA
BRANCH  12  13
ATOM     13  P2  IHP A3000     265.682 232.885 222.302  0.00  0.00    +0.000 P 
ATOM     14  O22 IHP A3000     264.438 232.934 221.450  0.00  0.00    +0.000 OA
ATOM     15  O32 IHP A3000     265.432 233.099 223.775  0.00  0.00    +0.000 OA
ATOM     16  O42 IHP A3000     266.839 233.670 221.735  0.00  0.00    +0.000 OA
ENDBRANCH  12  13
ENDBRANCH   2  12
BRANCH   3  17
ATOM     17  O13 IHP A3000     268.524 230.143 220.950  0.00  0.00    +0.000 OA
BRANCH  17  18
ATOM     18  P3  IHP A3000     269.983 230.823 221.018  0.00  0.00    +0.000 P 
ATOM     19  O23 IHP A3000     270.370 230.724 222.471  0.00  0.00    +0.000 OA
ATOM     20  O33 IHP A3000     270.834 229.990 220.092  0.00  0.00    +0.000 OA
ATOM     21  O43 IHP A3000     269.744 232.234 220.545  0.00  0.00    +0.000 OA
ENDBRANCH  17  18
ENDBRANCH   3  17
BRANCH   4  22
ATOM     22  O14 IHP A3000     268.695 230.093 218.274  0.00  0.00    +0.000 OA
BRANCH  22  23
ATOM     23  P4  IHP A3000     269.264 231.144 217.190  0.00  0.00    +0.000 P 
ATOM     24  O24 IHP A3000     268.558 232.434 217.536  0.00  0.00    +0.000 OA
ATOM     25  O34 IHP A3000     270.749 231.152 217.438  0.00  0.00    +0.000 OA
ATOM     26  O44 IHP A3000     268.891 230.569 215.848  0.00  0.00    +0.000 OA
ENDBRANCH  22  23
ENDBRANCH   4  22
BRANCH   5  27
ATOM     27  O15 IHP A3000     267.429 227.793 218.452  0.00  0.00    +0.000 OA
BRANCH  27  28
ATOM     28  P5  IHP A3000     267.733 227.458 216.914  0.00  0.00    +0.000 P 
ATOM     29  O25 IHP A3000     269.047 228.151 216.654  0.00  0.00    +0.000 OA
ATOM     30  O35 IHP A3000     267.793 225.953 216.866  0.00  0.00    +0.000 OA
ATOM     31  O45 IHP A3000     266.552 228.053 216.192  0.00  0.00    +0.000 OA
ENDBRANCH  27  28
ENDBRANCH   5  27
BRANCH   6  32
ATOM     32  O16 IHP A3000     265.376 227.153 219.971  0.00  0.00    +0.000 OA
BRANCH  32  33
ATOM     33  P6  IHP A3000     264.008 226.345 219.675  0.00  0.00    +0.000 P 
ATOM     34  O26 IHP A3000     263.579 226.839 218.316  0.00  0.00    +0.000 OA
ATOM     35  O36 IHP A3000     264.425 224.895 219.702  0.00  0.00    +0.000 OA
ATOM     36  O46 IHP A3000     263.084 226.731 220.801  0.00  0.00    +0.000 OA
ENDBRANCH  32  33
ENDBRANCH   6  32
TORSDOF 12
