REMARK  Name = ligand_pdbs\IPH.pdb
REMARK  6 active torsions:
REMARK  status: ('A' for Active; 'I' for Inactive)
REMARK    1  A    between atoms: C1_1  and  C2_4
REMARK    2  A    between atoms: C1_2  and  C4_7
REMARK    3  A    between atoms: C1_2  and  C5_9
REMARK    4  A    between atoms: C2_4  and  C6_11
REMARK    5  A    between atoms: C3_5  and  C4_8
REMARK    6  A    between atoms: C5_9  and  C6_11
REMARK                            x       y       z     vdW  Elec       q    Type
REMARK                         _______ _______ _______ _____ _____    ______ ____
ROOT
ATOM      1  C1  IPH B 361      48.663-109.993   8.563  0.00  0.00    +0.000 C 
ENDROOT
BRANCH   1   3
ATOM      2  C3  IPH B 361      47.716-111.104   9.933  0.00  0.00    +0.000 C 
ATOM      3  C4  IPH B 361      48.432-109.966   9.575  0.00  0.00    +0.000 C 
ATOM      4  C5  IPH B 361      48.005-110.788  10.744  0.00  0.00    +0.000 C 
ATOM      5  C6  IPH B 361      48.641-109.843   9.946  0.00  0.00    +0.000 C 
BRANCH   2   7
ATOM      6  C2  IPH B 361      47.395-112.055   8.969  0.00  0.00    +0.000 C 
ATOM      7  C4  IPH B 361      47.390-111.888  10.158  0.00  0.00    +0.000 C 
ENDBRANCH   2   7
ENDBRANCH   1   3
BRANCH   1   8
ATOM      8  C5  IPH B 361      48.826-109.779   8.253  0.00  0.00    +0.000 C 
ATOM      9  O1  IPH B 361      49.290-109.059   7.781  0.00  0.00    +0.000 OA
BRANCH   8  10
ATOM     10  C6  IPH B 361      48.505-110.730   7.290  0.00  0.00    +0.000 C 
BRANCH  10  11
ATOM     11  C2  IPH B 361      48.046-111.095   7.978  0.00  0.00    +0.000 C 
BRANCH  11  12
ATOM     12  C1  IPH B 361      47.788-111.868   7.648  0.00  0.00    +0.000 C 
ATOM     13  C3  IPH B 361      47.410-112.042   8.776  0.00  0.00    +0.000 C 
ATOM     14  O1  IPH B 361      47.470-112.808   6.700  0.00  0.00    +0.000 OA
ENDBRANCH  11  12
ENDBRANCH  10  11
ENDBRANCH   8  10
ENDBRANCH   1   8
TORSDOF 6
