REMARK  Name = ligand_pdbs\K10.pdb
REMARK  3 active torsions:
REMARK  status: ('A' for Active; 'I' for Inactive)
REMARK    1  A    between atoms: C5_8  and  C10_15
REMARK    2  A    between atoms: N5_10  and  C6_11
REMARK    3  A    between atoms: C10_15  and  C11_16
REMARK                            x       y       z     vdW  Elec       q    Type
REMARK                         _______ _______ _______ _____ _____    ______ ____
ROOT
ATOM      1  N1  K10 L 936      31.871  39.511  19.152  0.00  0.00    +0.000 NA
ATOM      2  C1  K10 L 936      32.907  39.813  18.375  0.00  0.00    +0.000 C 
ATOM      3  N2  K10 L 936      33.113  39.149  17.233  0.00  0.00    +0.000 NA
ATOM      4  C2  K10 L 936      34.135  39.442  16.440  0.00  0.00    +0.000 C 
ATOM      5  N3  K10 L 936      34.983  40.399  16.741  0.00  0.00    +0.000 NA
ATOM      6  C3  K10 L 936      34.837  41.113  17.881  0.00  0.00    +0.000 C 
ATOM      7  C4  K10 L 936      33.779  40.821  18.728  0.00  0.00    +0.000 C 
ATOM      8  C5  K10 L 936      33.924  41.712  19.790  0.00  0.00    +0.000 C 
ATOM      9  N4  K10 L 936      34.995  42.446  19.529  0.00  0.00    +0.000 NA
ATOM     10  N5  K10 L 936      35.506  42.102  18.447  0.00  0.00    +0.000 N 
ENDROOT
BRANCH  10  11
ATOM     11  C6  K10 L 936      36.734  42.741  17.886  0.00  0.00    +0.000 C 
ATOM     12  C7  K10 L 936      36.368  43.485  16.593  0.00  0.00    +0.000 C 
ATOM     13  C8  K10 L 936      37.301  43.733  18.904  0.00  0.00    +0.000 C 
ATOM     14  C9  K10 L 936      37.790  41.661  17.595  0.00  0.00    +0.000 C 
ENDBRANCH  10  11
BRANCH   8  15
ATOM     15  C10 K10 L 936      33.047  41.788  21.041  0.00  0.00    +0.000 C 
BRANCH  15  16
ATOM     16  C11 K10 L 936      33.439  42.970  21.924  0.00  0.00    +0.000 A 
ATOM     17  C12 K10 L 936      34.511  42.774  22.796  0.00  0.00    +0.000 A 
ATOM     18  C13 K10 L 936      34.949  43.788  23.635  0.00  0.00    +0.000 A 
ATOM     19  C14 K10 L 936      34.311  45.019  23.619  0.00  0.00    +0.000 A 
ATOM     20  C15 K10 L 936      33.236  45.221  22.756  0.00  0.00    +0.000 A 
ATOM     21  C16 K10 L 936      32.808  44.204  21.919  0.00  0.00    +0.000 A 
ATOM     22  C17 K10 L 936      31.626  44.482  20.991  0.00  0.00    +0.000 C 
ATOM     23  C18 K10 L 936      36.122  43.551  24.589  0.00  0.00    +0.000 C 
ENDBRANCH  15  16
ENDBRANCH   8  15
TORSDOF 3
