REMARK  Name = ligand_pdbs\K76.pdb
REMARK  6 active torsions:
REMARK  status: ('A' for Active; 'I' for Inactive)
REMARK    1  A    between atoms: C13_2  and  C10_5
REMARK    2  A    between atoms: C8_7  and  C12_8
REMARK    3  A    between atoms: C6_14  and  C5_15
REMARK    4  A    between atoms: N1_19  and  C3_20
REMARK    5  A    between atoms: C3_20  and  C2_21
REMARK    6  A    between atoms: C2_21  and  C1_22
REMARK                            x       y       z     vdW  Elec       q    Type
REMARK                         _______ _______ _______ _____ _____    ______ ____
ROOT
ATOM      1  C5  K76 C1101     -32.545  72.489  28.164  0.00  0.00    +0.000 C 
ATOM      2  N2  K76 C1101     -31.216  72.287  28.340  0.00  0.00    +0.000 NA
ATOM      3  C4  K76 C1101     -30.650  73.419  28.806  0.00  0.00    +0.000 C 
ATOM      4  N3  K76 C1101     -32.842  73.744  28.522  0.00  0.00    +0.000 NA
ATOM      5  N1  K76 C1101     -31.633  74.297  28.932  0.00  0.00    +0.000 N 
ENDROOT
BRANCH   1  11
ATOM      6  C10 K76 C1101     -35.777  70.835  27.118  0.00  0.00    +0.000 A 
ATOM      7  C9  K76 C1101     -35.298  69.610  26.697  0.00  0.00    +0.000 A 
ATOM      8  C8  K76 C1101     -33.943  69.317  26.757  0.00  0.00    +0.000 A 
ATOM      9  C7  K76 C1101     -33.044  70.258  27.226  0.00  0.00    +0.000 A 
ATOM     10  C11 K76 C1101     -34.881  71.782  27.601  0.00  0.00    +0.000 A 
ATOM     11  C6  K76 C1101     -33.517  71.488  27.658  0.00  0.00    +0.000 A 
BRANCH   6  13
ATOM     12  F3  K76 C1101     -37.963  70.201  26.511  0.00  0.00    +0.000 F 
ATOM     13  C13 K76 C1101     -37.245  71.148  27.058  0.00  0.00    +0.000 C 
ATOM     14  F5  K76 C1101     -37.686  71.278  28.275  0.00  0.00    +0.000 F 
ATOM     15  F4  K76 C1101     -37.432  72.264  26.385  0.00  0.00    +0.000 F 
ENDBRANCH   6  13
BRANCH   8  16
ATOM     16  C12 K76 C1101     -33.471  67.981  26.291  0.00  0.00    +0.000 C 
ATOM     17  F8  K76 C1101     -33.508  67.975  24.989  0.00  0.00    +0.000 F 
ATOM     18  F6  K76 C1101     -34.236  67.026  26.772  0.00  0.00    +0.000 F 
ATOM     19  F7  K76 C1101     -32.247  67.763  26.696  0.00  0.00    +0.000 F 
ENDBRANCH   8  16
ENDBRANCH   1  11
BRANCH   5  20
ATOM     20  C3  K76 C1101     -31.723  75.694  29.366  0.00  0.00    +0.000 C 
BRANCH  20  21
ATOM     21  C2  K76 C1101     -32.134  76.483  28.130  0.00  0.00    +0.000 C 
BRANCH  21  22
ATOM     22  C1  K76 C1101     -31.474  77.840  28.066  0.00  0.00    +0.000 C 
ATOM     23  O   K76 C1101     -30.256  77.941  28.005  0.00  0.00    +0.000 OA
ATOM     24  N1' K76 C1101     -32.290  78.885  28.060  0.00  0.00    +0.000 N 
ATOM     25  C1' K76 C1101     -33.737  78.987  28.109  0.00  0.00    +0.000 C 
ATOM     26  C3' K76 C1101     -32.020  80.309  27.985  0.00  0.00    +0.000 C 
ATOM     27  C2' K76 C1101     -33.536  80.494  27.963  0.00  0.00    +0.000 C 
ATOM     28  F2  K76 C1101     -34.007  81.162  29.001  0.00  0.00    +0.000 F 
ATOM     29  F1  K76 C1101     -34.011  80.918  26.803  0.00  0.00    +0.000 F 
ENDBRANCH  21  22
ENDBRANCH  20  21
ENDBRANCH   5  20
TORSDOF 6
