REMARK  Name = ligand_pdbs\K85.pdb
REMARK  8 active torsions:
REMARK  status: ('A' for Active; 'I' for Inactive)
REMARK    1  A    between atoms: C17_2  and  C13_5
REMARK    2  A    between atoms: C11_8  and  O15_9
REMARK    3  A    between atoms: C9_12  and  C6_13
REMARK    4  A    between atoms: N4_17  and  C3_18
REMARK    5  A    between atoms: C3_18  and  C2_19
REMARK    6  A    between atoms: C2_19  and  C1_20
REMARK    7  A    between atoms: C1_20  and  O1'_22
REMARK    8  A    between atoms: O1'_22  and  C2'_23
REMARK                            x       y       z     vdW  Elec       q    Type
REMARK                         _______ _______ _______ _____ _____    ______ ____
ROOT
ATOM      1  C6  K85 C1101     -32.690  73.327  28.373  0.00  0.00    +0.000 C 
ATOM      2  N7  K85 C1101     -33.015  74.639  28.436  0.00  0.00    +0.000 NA
ATOM      3  C8  K85 C1101     -31.979  75.333  28.944  0.00  0.00    +0.000 C 
ATOM      4  N5  K85 C1101     -31.433  73.165  28.840  0.00  0.00    +0.000 NA
ATOM      5  N4  K85 C1101     -31.018  74.448  29.189  0.00  0.00    +0.000 N 
ENDROOT
BRANCH   1  11
ATOM      6  C13 K85 C1101     -33.916  70.002  27.062  0.00  0.00    +0.000 A 
ATOM      7  C14 K85 C1101     -33.073  71.002  27.544  0.00  0.00    +0.000 A 
ATOM      8  C12 K85 C1101     -35.277  70.270  26.893  0.00  0.00    +0.000 A 
ATOM      9  C11 K85 C1101     -35.791  71.532  27.209  0.00  0.00    +0.000 A 
ATOM     10  C10 K85 C1101     -34.941  72.520  27.689  0.00  0.00    +0.000 A 
ATOM     11  C9  K85 C1101     -33.586  72.256  27.861  0.00  0.00    +0.000 A 
BRANCH   6  13
ATOM     12  F19 K85 C1101     -34.122  67.697  27.229  0.00  0.00    +0.000 F 
ATOM     13  C17 K85 C1101     -33.364  68.646  26.713  0.00  0.00    +0.000 C 
ATOM     14  F20 K85 C1101     -33.348  68.509  25.403  0.00  0.00    +0.000 F 
ATOM     15  F18 K85 C1101     -32.126  68.514  27.148  0.00  0.00    +0.000 F 
ENDBRANCH   6  13
BRANCH   9  16
ATOM     16  O15 K85 C1101     -37.121  71.842  27.055  0.00  0.00    +0.000 OA
ATOM     17  C16 K85 C1101     -38.144  70.861  27.219  0.00  0.00    +0.000 C 
ENDBRANCH   9  16
ENDBRANCH   1  11
BRANCH   5  18
ATOM     18  C3  K85 C1101     -29.668  74.572  29.743  0.00  0.00    +0.000 C 
BRANCH  18  19
ATOM     19  C2  K85 C1101     -28.644  73.953  28.796  0.00  0.00    +0.000 C 
BRANCH  19  20
ATOM     20  C1  K85 C1101     -28.243  74.944  27.731  0.00  0.00    +0.000 C 
ATOM     21  O   K85 C1101     -29.065  75.689  27.223  0.00  0.00    +0.000 OA
BRANCH  20  22
ATOM     22  O1' K85 C1101     -26.844  74.999  27.337  0.00  0.00    +0.000 OA
BRANCH  22  23
ATOM     23  C2' K85 C1101     -26.597  75.299  25.963  0.00  0.00    +0.000 C 
ATOM     24  C4' K85 C1101     -25.269  74.666  25.563  0.00  0.00    +0.000 C 
ATOM     25  C3' K85 C1101     -26.560  76.811  25.772  0.00  0.00    +0.000 C 
ENDBRANCH  22  23
ENDBRANCH  20  22
ENDBRANCH  19  20
ENDBRANCH  18  19
ENDBRANCH   5  18
TORSDOF 8
