REMARK  Name = ligand_pdbs\K8H.pdb
REMARK  3 active torsions:
REMARK  status: ('A' for Active; 'I' for Inactive)
REMARK    1  A    between atoms: C6_8  and  N3_22
REMARK    2  A    between atoms: C7_9  and  C8_10
REMARK    3  A    between atoms: C8_10  and  N4_24
REMARK                            x       y       z     vdW  Elec       q    Type
REMARK                         _______ _______ _______ _____ _____    ______ ____
ROOT
ATOM      1  O1  K8H A 701     -31.135 -37.319  -2.697  0.00  0.00    +0.000 OA
ATOM      2  O2  K8H A 701     -33.653 -37.773  -1.770  0.00  0.00    +0.000 OA
ATOM      3  C6  K8H A 701     -33.848 -36.304  -3.752  0.00  0.00    +0.000 C 
ATOM      4  C7  K8H A 701     -31.999 -37.040  -4.958  0.00  0.00    +0.000 C 
ATOM      5  O   K8H A 701     -33.225 -36.268  -5.018  0.00  0.00    +0.000 OA
ATOM      6  C17 K8H A 701     -32.063 -37.846  -3.637  0.00  0.00    +0.000 C 
ATOM      7  C18 K8H A 701     -33.519 -37.681  -3.175  0.00  0.00    +0.000 C 
ENDROOT
BRANCH   3  17
ATOM      8  C1  K8H A 701     -36.157 -32.903  -2.548  0.00  0.00    +0.000 C 
ATOM      9  C2  K8H A 701     -35.865 -34.897  -3.496  0.00  0.00    +0.000 C 
ATOM     10  C3  K8H A 701     -37.197 -34.943  -3.895  0.00  0.00    +0.000 C 
ATOM     11  C4  K8H A 701     -37.367 -36.185  -4.592  0.00  0.00    +0.000 C 
ATOM     12  C5  K8H A 701     -36.157 -36.796  -4.635  0.00  0.00    +0.000 C 
ATOM     13  N   K8H A 701     -39.308 -33.751  -3.899  0.00  0.00    +0.000 NA
ATOM     14  C   K8H A 701     -38.009 -33.842  -3.547  0.00  0.00    +0.000 C 
ATOM     15  N1  K8H A 701     -37.456 -32.800  -2.887  0.00  0.00    +0.000 NA
ATOM     16  N2  K8H A 701     -35.297 -33.897  -2.800  0.00  0.00    +0.000 NA
ATOM     17  N3  K8H A 701     -35.237 -36.030  -3.937  0.00  0.00    +0.000 N 
ENDBRANCH   3  17
BRANCH   4  18
ATOM     18  C8  K8H A 701     -31.878 -37.884  -6.213  0.00  0.00    +0.000 C 
BRANCH  18  26
ATOM     19  C9  K8H A 701     -29.384 -38.207  -6.327  0.00  0.00    +0.000 C 
ATOM     20  C10 K8H A 701     -28.484 -39.317  -6.871  0.00  0.00    +0.000 C 
ATOM     21  C11 K8H A 701     -29.392 -40.534  -6.956  0.00  0.00    +0.000 C 
ATOM     22  C12 K8H A 701     -30.782 -39.913  -7.206  0.00  0.00    +0.000 C 
ATOM     23  C13 K8H A 701     -30.918 -39.483  -8.677  0.00  0.00    +0.000 C 
ATOM     24  C14 K8H A 701     -31.073 -40.673  -9.630  0.00  0.00    +0.000 C 
ATOM     25  C15 K8H A 701     -31.927 -42.062  -7.878  0.00  0.00    +0.000 C 
ATOM     26  N4  K8H A 701     -30.727 -38.786  -6.232  0.00  0.00    +0.000 NA
ATOM     27  N5  K8H A 701     -32.160 -41.599  -9.246  0.00  0.00    +0.000 NA
ATOM     28  C16 K8H A 701     -31.891 -40.917  -6.878  0.00  0.00    +0.000 C 
ENDBRANCH  18  26
ENDBRANCH   4  18
TORSDOF 3
