REMARK  Name = ligand_pdbs\K8N.pdb
REMARK  4 active torsions:
REMARK  status: ('A' for Active; 'I' for Inactive)
REMARK    1  A    between atoms: N4_10  and  C7_11
REMARK    2  A    between atoms: C9_13  and  C10_14
REMARK    3  A    between atoms: C10_14  and  C11_15
REMARK    4  A    between atoms: C11_15  and  C12_16
REMARK                            x       y       z     vdW  Elec       q    Type
REMARK                         _______ _______ _______ _____ _____    ______ ____
ROOT
ATOM      1  C7  K8N A 701     -33.428 -37.385  -3.683  0.00  0.00    +0.000 C 
ATOM      2  C8  K8N A 701     -32.648 -37.657  -4.965  0.00  0.00    +0.000 C 
ATOM      3  C9  K8N A 701     -31.461 -38.544  -4.569  0.00  0.00    +0.000 C 
ATOM      4  C21 K8N A 701     -31.816 -39.112  -3.192  0.00  0.00    +0.000 C 
ATOM      5  O1  K8N A 701     -30.853 -38.645  -2.255  0.00  0.00    +0.000 OA
ATOM      6  C22 K8N A 701     -33.274 -38.703  -2.924  0.00  0.00    +0.000 C 
ATOM      7  O2  K8N A 701     -33.586 -38.557  -1.548  0.00  0.00    +0.000 OA
ENDROOT
BRANCH   1  17
ATOM      8  N1  K8N A 701     -38.917 -34.834  -3.715  0.00  0.00    +0.000 NA
ATOM      9  C1  K8N A 701     -37.618 -34.912  -3.415  0.00  0.00    +0.000 C 
ATOM     10  N2  K8N A 701     -37.089 -33.908  -2.697  0.00  0.00    +0.000 NA
ATOM     11  C2  K8N A 701     -35.783 -33.985  -2.396  0.00  0.00    +0.000 C 
ATOM     12  N3  K8N A 701     -34.902 -34.934  -2.698  0.00  0.00    +0.000 NA
ATOM     13  C3  K8N A 701     -35.463 -35.921  -3.421  0.00  0.00    +0.000 C 
ATOM     14  C4  K8N A 701     -36.798 -35.985  -3.803  0.00  0.00    +0.000 C 
ATOM     15  C5  K8N A 701     -36.947 -37.192  -4.542  0.00  0.00    +0.000 C 
ATOM     16  C6  K8N A 701     -35.743 -37.797  -4.580  0.00  0.00    +0.000 C 
ATOM     17  N4  K8N A 701     -34.829 -37.033  -3.909  0.00  0.00    +0.000 N 
ENDBRANCH   1  17
BRANCH   3  18
ATOM     18  C10 K8N A 701     -31.139 -39.610  -5.614  0.00  0.00    +0.000 C 
BRANCH  18  19
ATOM     19  C11 K8N A 701     -30.789 -39.080  -7.000  0.00  0.00    +0.000 C 
BRANCH  19  20
ATOM     20  C12 K8N A 701     -30.136 -40.166  -7.812  0.00  0.00    +0.000 C 
ATOM     21  C13 K8N A 701     -28.731 -40.222  -7.932  0.00  0.00    +0.000 C 
ATOM     22  C14 K8N A 701     -28.125 -41.221  -8.622  0.00  0.00    +0.000 C 
ATOM     23  C15 K8N A 701     -28.903 -42.229  -9.215  0.00  0.00    +0.000 C 
ATOM     24  C16 K8N A 701     -28.331 -43.278  -9.942  0.00  0.00    +0.000 C 
ATOM     25  C17 K8N A 701     -29.149 -44.213 -10.484  0.00  0.00    +0.000 C 
ATOM     26 BR1  K8N A 701     -28.375 -45.666 -11.401  0.00  0.00    +0.000 Br
ATOM     27  C18 K8N A 701     -30.558 -44.142 -10.303  0.00  0.00    +0.000 C 
ATOM     28  N5  K8N A 701     -31.362 -45.075 -10.853  0.00  0.00    +0.000 NA
ATOM     29  N6  K8N A 701     -31.127 -43.152  -9.646  0.00  0.00    +0.000 NA
ATOM     30  C19 K8N A 701     -30.306 -42.196  -9.093  0.00  0.00    +0.000 C 
ATOM     31  C20 K8N A 701     -30.902 -41.147  -8.379  0.00  0.00    +0.000 C 
ENDBRANCH  19  20
ENDBRANCH  18  19
ENDBRANCH   3  18
TORSDOF 4
