REMARK  Name = ligand_pdbs\LB3.pdb
REMARK  1 active torsions:
REMARK  status: ('A' for Active; 'I' for Inactive)
REMARK    1  A    between atoms: C5_4  and  C6_5
REMARK                            x       y       z     vdW  Elec       q    Type
REMARK                         _______ _______ _______ _____ _____    ______ ____
ROOT
ATOM      1  N1  LB3 A 707      14.124 -37.333  -4.798  0.00  0.00    +0.000 NA
ATOM      2  N3  LB3 A 707      13.532 -34.259  -2.812  0.00  0.00    +0.000 NA
ATOM      3  C6  LB3 A 707      19.244 -38.825  -6.119  0.00  0.00    +0.000 C 
ATOM      4  C7  LB3 A 707      17.930 -39.328  -6.746  0.00  0.00    +0.000 C 
ATOM      5  C8  LB3 A 707      16.710 -39.587  -5.880  0.00  0.00    +0.000 C 
ATOM      6  C10 LB3 A 707      14.143 -36.248  -3.934  0.00  0.00    +0.000 C 
ATOM      7  C13 LB3 A 707      15.403 -36.077  -3.375  0.00  0.00    +0.000 C 
ATOM      8  C15 LB3 A 707      17.519 -37.343  -3.382  0.00  0.00    +0.000 C 
ATOM      9  C17 LB3 A 707      19.100 -39.137  -3.436  0.00  0.00    +0.000 C 
ATOM     10  C9  LB3 A 707      15.373 -37.743  -4.797  0.00  0.00    +0.000 C 
ATOM     11  O   LB3 A 707      18.408 -37.123  -4.462  0.00  0.00    +0.000 OA
ATOM     12  O2  LB3 A 707      20.117 -38.822  -2.498  0.00  0.00    +0.000 OA
ATOM     13  C11 LB3 A 707      13.170 -35.277  -3.626  0.00  0.00    +0.000 C 
ATOM     14  C12 LB3 A 707      14.788 -34.223  -2.342  0.00  0.00    +0.000 C 
ATOM     15  N   LB3 A 707      15.789 -38.459  -5.862  0.00  0.00    +0.000 NA
ATOM     16  N2  LB3 A 707      11.936 -35.271  -4.143  0.00  0.00    +0.000 NA
ATOM     17  C16 LB3 A 707      17.687 -38.803  -2.947  0.00  0.00    +0.000 C 
ATOM     18  N5  LB3 A 707      16.185 -37.091  -3.899  0.00  0.00    +0.000 N 
ATOM     19  N4  LB3 A 707      15.788 -35.083  -2.560  0.00  0.00    +0.000 NA
ATOM     20  C14 LB3 A 707      19.249 -38.267  -4.680  0.00  0.00    +0.000 C 
ATOM     21  O1  LB3 A 707      17.468 -39.018  -1.558  0.00  0.00    +0.000 OA
ENDROOT
BRANCH   3  23
ATOM     22  C4  LB3 A 707      21.675 -39.437  -6.384  0.00  0.00    +0.000 A 
ATOM     23  C5  LB3 A 707      20.360 -39.853  -6.189  0.00  0.00    +0.000 A 
ATOM     24  F1  LB3 A 707      23.973 -39.972  -6.432  0.00  0.00    +0.000 F 
ATOM     25  F   LB3 A 707      23.432 -42.584  -6.168  0.00  0.00    +0.000 F 
ATOM     26  C3  LB3 A 707      22.684 -40.371  -6.385  0.00  0.00    +0.000 A 
ATOM     27  C   LB3 A 707      22.411 -41.710  -6.238  0.00  0.00    +0.000 A 
ATOM     28  C2  LB3 A 707      20.094 -41.217  -6.069  0.00  0.00    +0.000 A 
ATOM     29  C1  LB3 A 707      21.120 -42.150  -6.100  0.00  0.00    +0.000 A 
ENDBRANCH   3  23
TORSDOF 1
