REMARK  Name = ligand_pdbs\LG7.pdb
REMARK  2 active torsions:
REMARK  status: ('A' for Active; 'I' for Inactive)
REMARK    1  A    between atoms: C15_5  and  C22_9
REMARK    2  A    between atoms: C12_10  and  N9_19
REMARK                            x       y       z     vdW  Elec       q    Type
REMARK                         _______ _______ _______ _____ _____    ______ ____
ROOT
ATOM      1  C13 LG7 A  90      27.812   4.260   3.914  0.00  0.00    +0.000 A 
ATOM      2  C18 LG7 A  90      22.585   4.404   4.498  0.00  0.00    +0.000 A 
ATOM      3  C17 LG7 A  90      23.513   5.364   4.252  0.00  0.00    +0.000 A 
ATOM      4  C16 LG7 A  90      24.911   4.891   4.149  0.00  0.00    +0.000 A 
ATOM      5  C15 LG7 A  90      25.995   5.894   3.881  0.00  0.00    +0.000 A 
ATOM      6  C19 LG7 A  90      22.945   3.026   4.663  0.00  0.00    +0.000 A 
ATOM      7  C20 LG7 A  90      24.309   2.521   4.571  0.00  0.00    +0.000 A 
ATOM      8  C21 LG7 A  90      25.324   3.543   4.302  0.00  0.00    +0.000 A 
ATOM      9  C12 LG7 A  90      26.761   3.249   4.173  0.00  0.00    +0.000 A 
ATOM     10  C14 LG7 A  90      27.419   5.575   3.751  0.00  0.00    +0.000 A 
ENDROOT
BRANCH   9  19
ATOM     11  O1  LG7 A  90      30.252   0.944   3.243  0.00  0.00    +0.000 OA
ATOM     12  C2  LG7 A  90      29.947  -0.083   4.142  0.00  0.00    +0.000 C 
ATOM     13  C3  LG7 A  90      29.544  -1.382   3.236  0.00  0.00    +0.000 C 
ATOM     14  C4  LG7 A  90      27.921  -1.376   3.124  0.00  0.00    +0.000 C 
ATOM     15  N5  LG7 A  90      27.815  -0.005   3.787  0.00  0.00    +0.000 N 
ATOM     16  C6  LG7 A  90      28.565   0.221   4.924  0.00  0.00    +0.000 C 
ATOM     17  C7  LG7 A  90      28.250   1.659   5.279  0.00  0.00    +0.000 C 
ATOM     18  O8  LG7 A  90      28.820   2.262   6.343  0.00  0.00    +0.000 OA
ATOM     19  N9  LG7 A  90      27.346   2.040   4.295  0.00  0.00    +0.000 N 
ATOM     20  C10 LG7 A  90      27.100   1.035   3.415  0.00  0.00    +0.000 C 
ATOM     21  O11 LG7 A  90      26.365   1.045   2.439  0.00  0.00    +0.000 OA
ENDBRANCH   9  19
BRANCH   5  22
ATOM     22  C22 LG7 A  90      25.574   7.280   3.802  0.00  0.00    +0.000 C 
ATOM     23  N23 LG7 A  90      25.228   8.421   3.739  0.00  0.00    +0.000 NA
ENDBRANCH   5  22
TORSDOF 2
