REMARK  Name = ligand_pdbs\LGB.pdb
REMARK  3 active torsions:
REMARK  status: ('A' for Active; 'I' for Inactive)
REMARK    1  A    between atoms: C8_8  and  C21_21
REMARK    2  A    between atoms: N9_9  and  C10_10
REMARK    3  A    between atoms: C13_13  and  C19_19
REMARK                            x       y       z     vdW  Elec       q    Type
REMARK                         _______ _______ _______ _____ _____    ______ ____
ROOT
ATOM      1  C1  LGB A   1      55.148  -1.151   3.598  0.00  0.00    +0.000 C 
ATOM      2  N2  LGB A   1      55.745  -0.160   4.529  0.00  0.00    +0.000 N 
ATOM      3  C3  LGB A   1      57.201  -0.297   4.498  0.00  0.00    +0.000 C 
ATOM      4  C4  LGB A   1      57.527  -1.026   3.177  0.00  0.00    +0.000 C 
ATOM      5  C5  LGB A   1      56.284  -1.961   2.972  0.00  0.00    +0.000 C 
ATOM      6  C6  LGB A   1      55.568   1.233   4.368  0.00  0.00    +0.000 C 
ATOM      7  O7  LGB A   1      56.675   1.912   4.694  0.00  0.00    +0.000 OA
ATOM      8  C8  LGB A   1      57.787   1.094   4.728  0.00  0.00    +0.000 C 
ATOM      9  N9  LGB A   1      54.433   1.800   3.944  0.00  0.00    +0.000 NA
ATOM     10  O18 LGB A   1      58.704  -1.781   3.271  0.00  0.00    +0.000 OA
ENDROOT
BRANCH   9  11
ATOM     11  C10 LGB A   1      54.119   3.119   3.910  0.00  0.00    +0.000 A 
ATOM     12  C11 LGB A   1      52.765   3.481   4.075  0.00  0.00    +0.000 A 
ATOM     13  C12 LGB A   1      52.454   4.837   4.038  0.00  0.00    +0.000 A 
ATOM     14  C13 LGB A   1      53.438   5.827   3.844  0.00  0.00    +0.000 A 
ATOM     15  C14 LGB A   1      54.761   5.480   3.684  0.00  0.00    +0.000 A 
ATOM     16  C15 LGB A   1      55.100   4.126   3.718  0.00  0.00    +0.000 A 
ATOM     17  C16 LGB A   1      51.703   2.428   4.283  0.00  0.00    +0.000 C 
ATOM     18 CL17 LGB A   1      50.837   5.307   4.232  0.00  0.00    +0.000 Cl
BRANCH  14  19
ATOM     19  C19 LGB A   1      53.147   7.204   3.805  0.00  0.00    +0.000 C 
ATOM     20  N20 LGB A   1      52.785   8.287   3.792  0.00  0.00    +0.000 NA
ENDBRANCH  14  19
ENDBRANCH   9  11
BRANCH   8  21
ATOM     21  C21 LGB A   1      58.319   1.238   6.141  0.00  0.00    +0.000 C 
ATOM     22  F22 LGB A   1      59.364   0.431   6.272  0.00  0.00    +0.000 F 
ATOM     23  F23 LGB A   1      57.407   0.941   7.077  0.00  0.00    +0.000 F 
ATOM     24  F24 LGB A   1      58.684   2.484   6.322  0.00  0.00    +0.000 F 
ENDBRANCH   8  21
TORSDOF 3
