REMARK  Name = ligand_pdbs\LGD.pdb
REMARK  6 active torsions:
REMARK  status: ('A' for Active; 'I' for Inactive)
REMARK    1  A    between atoms: C4_4  and  C11_14
REMARK    2  A    between atoms: C7_10  and  N13_16
REMARK    3  A    between atoms: C12_15  and  N13_16
REMARK    4  A    between atoms: C12_15  and  C15_21
REMARK    5  A    between atoms: N13_16  and  C14_17
REMARK    6  A    between atoms: C14_17  and  C16_25
REMARK                            x       y       z     vdW  Elec       q    Type
REMARK                         _______ _______ _______ _____ _____    ______ ____
ROOT
ATOM      1  N1  LGD A2226       1.934  25.852   4.677  0.00  0.00    +0.000 NA
ATOM      2  C2  LGD A2226       3.321  25.626   4.765  0.00  0.00    +0.000 C 
ATOM      3  C3  LGD A2226       4.231  26.740   4.930  0.00  0.00    +0.000 C 
ATOM      4  C4  LGD A2226       3.716  28.113   5.001  0.00  0.00    +0.000 C 
ATOM      5  C5  LGD A2226       2.260  28.329   4.903  0.00  0.00    +0.000 C 
ATOM      6  C6  LGD A2226       1.635  29.637   4.955  0.00  0.00    +0.000 C 
ATOM      7  C7  LGD A2226       0.199  29.840   4.868  0.00  0.00    +0.000 C 
ATOM      8  C8  LGD A2226      -0.640  28.627   4.717  0.00  0.00    +0.000 C 
ATOM      9  C9  LGD A2226      -0.061  27.306   4.650  0.00  0.00    +0.000 C 
ATOM     10  C10 LGD A2226       1.369  27.143   4.738  0.00  0.00    +0.000 C 
ATOM     11  O21 LGD A2226       3.734  24.479   4.706  0.00  0.00    +0.000 OA
ENDROOT
BRANCH   4  15
ATOM     12  F1  LGD A2226       4.496  29.901   6.380  0.00  0.00    +0.000 F 
ATOM     13  F2  LGD A2226       6.042  28.846   5.256  0.00  0.00    +0.000 F 
ATOM     14  F3  LGD A2226       4.651  30.295   4.288  0.00  0.00    +0.000 F 
ATOM     15  C11 LGD A2226       4.760  29.324   5.199  0.00  0.00    +0.000 C 
ENDBRANCH   4  15
BRANCH   7  16
ATOM     16  N13 LGD A2226      -0.362  31.267   4.937  0.00  0.00    +0.000 NA
BRANCH  16  17
ATOM     17  C12 LGD A2226      -1.855  31.567   4.915  0.00  0.00    +0.000 C 
BRANCH  17  21
ATOM     18  F4  LGD A2226      -3.640  31.712   5.947  0.00  0.00    +0.000 F 
ATOM     19  F5  LGD A2226      -2.516  30.168   6.651  0.00  0.00    +0.000 F 
ATOM     20  F6  LGD A2226      -1.925  32.057   7.265  0.00  0.00    +0.000 F 
ATOM     21  C15 LGD A2226      -2.397  31.355   6.224  0.00  0.00    +0.000 C 
ENDBRANCH  17  21
ENDBRANCH  16  17
BRANCH  16  22
ATOM     22  C14 LGD A2226       0.507  32.456   4.794  0.00  0.00    +0.000 C 
BRANCH  22  26
ATOM     23  F7  LGD A2226       0.408  34.303   4.128  0.00  0.00    +0.000 F 
ATOM     24  F8  LGD A2226       1.979  33.186   3.467  0.00  0.00    +0.000 F 
ATOM     25  F9  LGD A2226       0.147  32.842   2.591  0.00  0.00    +0.000 F 
ATOM     26  C16 LGD A2226       0.766  33.105   3.747  0.00  0.00    +0.000 C 
ENDBRANCH  22  26
ENDBRANCH  16  22
ENDBRANCH   7  16
TORSDOF 6
