REMARK  Name = ligand_pdbs\LI.pdb
REMARK  0 active torsions:
REMARK  status: ('A' for Active; 'I' for Inactive)
REMARK                            x       y       z     vdW  Elec       q    Type
REMARK                         _______ _______ _______ _____ _____    ______ ____
ROOT
ATOM      1 LI   LI  A1006     -31.178   4.148  10.745  0.00  0.00    +0.000 Li
ENDROOT
TORSDOF 0
