REMARK  Name = ligand_pdbs\LMB.pdb
REMARK  19 active torsions:
REMARK  status: ('A' for Active; 'I' for Inactive)
REMARK    1  A    between atoms: C24_2  and  C23_4
REMARK    2  A    between atoms: C22_5  and  C21_7
REMARK    3  A    between atoms: C21_7  and  C20_8
REMARK    4  A    between atoms: C20_8  and  C19_10
REMARK    5  A    between atoms: C19_10  and  C18_12
REMARK    6  A    between atoms: C18_12  and  C17_14
REMARK    7  A    between atoms: C17_14  and  C16_16
REMARK    8  A    between atoms: C16_16  and  C15_18
REMARK    9  A    between atoms: C14_19  and  C13_21
REMARK   10  A    between atoms: C12_22  and  C11_23
REMARK   11  A    between atoms: C11_23  and  C10_24
REMARK   12  A    between atoms: C10_24  and  C9_26
REMARK   13  A    between atoms: C8_27  and  C26_28
REMARK   14  A    between atoms: C8_27  and  C7_30
REMARK   15  A    between atoms: C6_31  and  C5_32
REMARK   16  A    between atoms: C5_32  and  C4_34
REMARK   17  A    between atoms: C4_34  and  C3_36
REMARK   18  A    between atoms: C3_36  and  C2_37
REMARK   19  A    between atoms: C2_37  and  C1_38
REMARK                            x       y       z     vdW  Elec       q    Type
REMARK                         _______ _______ _______ _____ _____    ______ ____
ROOT
ATOM      1  C15 LMB C1101     -42.408  71.540  27.275  0.00  0.00    +0.000 C 
ATOM      2  C14 LMB C1101     -41.204  72.050  27.593  0.00  0.00    +0.000 C 
ATOM      3  C29 LMB C1101     -41.042  73.392  28.255  0.00  0.00    +0.000 C 
ENDROOT
BRANCH   1   4
ATOM      4  C16 LMB C1101     -43.712  72.256  27.534  0.00  0.00    +0.000 C 
ATOM      5  C30 LMB C1101     -44.590  72.068  26.301  0.00  0.00    +0.000 C 
BRANCH   4   6
ATOM      6  C17 LMB C1101     -44.416  71.689  28.725  0.00  0.00    +0.000 C 
ATOM      7  O3  LMB C1101     -44.996  70.619  28.619  0.00  0.00    +0.000 OA
BRANCH   6   8
ATOM      8  C18 LMB C1101     -44.415  72.460  30.016  0.00  0.00    +0.000 C 
ATOM      9  C31 LMB C1101     -45.571  73.462  29.954  0.00  0.00    +0.000 C 
BRANCH   8  10
ATOM     10  C19 LMB C1101     -44.550  71.542  31.239  0.00  0.00    +0.000 C 
ATOM     11  O4  LMB C1101     -44.633  72.346  32.423  0.00  0.00    +0.000 OA
BRANCH  10  12
ATOM     12  C20 LMB C1101     -43.396  70.550  31.428  0.00  0.00    +0.000 C 
ATOM     13  C32 LMB C1101     -42.102  71.276  31.781  0.00  0.00    +0.000 C 
BRANCH  12  14
ATOM     14  C21 LMB C1101     -43.706  69.504  32.500  0.00  0.00    +0.000 C 
BRANCH  14  16
ATOM     15  C23 LMB C1101     -46.040  68.814  32.937  0.00  0.00    +0.000 C 
ATOM     16  C22 LMB C1101     -44.953  68.723  32.146  0.00  0.00    +0.000 C 
ATOM     17  C33 LMB C1101     -44.957  67.891  30.893  0.00  0.00    +0.000 C 
BRANCH  15  19
ATOM     18  O6  LMB C1101     -47.439  67.417  31.610  0.00  0.00    +0.000 OA
ATOM     19  C24 LMB C1101     -47.292  68.071  32.662  0.00  0.00    +0.000 C 
ATOM     20  O5  LMB C1101     -48.202  68.102  33.512  0.00  0.00    +0.000 OA
ENDBRANCH  15  19
ENDBRANCH  14  16
ENDBRANCH  12  14
ENDBRANCH  10  12
ENDBRANCH   8  10
ENDBRANCH   6   8
ENDBRANCH   4   6
ENDBRANCH   1   4
BRANCH   2  21
ATOM     21  C13 LMB C1101     -40.026  71.238  27.234  0.00  0.00    +0.000 C 
ATOM     22  C12 LMB C1101     -38.780  71.666  27.393  0.00  0.00    +0.000 C 
BRANCH  22  23
ATOM     23  C11 LMB C1101     -37.645  70.762  26.962  0.00  0.00    +0.000 C 
BRANCH  23  24
ATOM     24  C10 LMB C1101     -36.555  70.749  28.018  0.00  0.00    +0.000 C 
ATOM     25  C28 LMB C1101     -37.019  69.986  29.254  0.00  0.00    +0.000 C 
BRANCH  24  26
ATOM     26  C9  LMB C1101     -35.323  70.051  27.485  0.00  0.00    +0.000 C 
ATOM     27  C8  LMB C1101     -34.078  70.577  27.450  0.00  0.00    +0.000 C 
BRANCH  27  28
ATOM     28  C26 LMB C1101     -32.933  69.747  26.892  0.00  0.00    +0.000 C 
ATOM     29  C27 LMB C1101     -33.371  68.403  26.347  0.00  0.00    +0.000 C 
ENDBRANCH  27  28
BRANCH  27  30
ATOM     30  C7  LMB C1101     -33.787  71.961  27.915  0.00  0.00    +0.000 C 
ATOM     31  C6  LMB C1101     -32.547  72.453  27.953  0.00  0.00    +0.000 C 
BRANCH  31  32
ATOM     32  C5  LMB C1101     -32.325  73.878  28.400  0.00  0.00    +0.000 C 
ATOM     33  O2  LMB C1101     -31.685  74.512  27.281  0.00  0.00    +0.000 OA
BRANCH  32  34
ATOM     34  C4  LMB C1101     -31.460  74.091  29.646  0.00  0.00    +0.000 C 
ATOM     35  C25 LMB C1101     -30.145  73.335  29.538  0.00  0.00    +0.000 C 
BRANCH  34  36
ATOM     36  C3  LMB C1101     -31.186  75.586  29.892  0.00  0.00    +0.000 C 
BRANCH  36  37
ATOM     37  C2  LMB C1101     -32.432  76.436  29.601  0.00  0.00    +0.000 C 
BRANCH  37  38
ATOM     38  C1  LMB C1101     -32.262  77.902  29.905  0.00  0.00    +0.000 C 
ATOM     39  O1' LMB C1101     -33.246  78.493  30.400  0.00  0.00    +0.000 OA
ATOM     40  O1  LMB C1101     -31.176  78.462  29.630  0.00  0.00    +0.000 OA
ENDBRANCH  37  38
ENDBRANCH  36  37
ENDBRANCH  34  36
ENDBRANCH  32  34
ENDBRANCH  31  32
ENDBRANCH  27  30
ENDBRANCH  24  26
ENDBRANCH  23  24
ENDBRANCH  22  23
ENDBRANCH   2  21
TORSDOF 19
