REMARK  Name = ligand_pdbs\M9R.pdb
REMARK  6 active torsions:
REMARK  status: ('A' for Active; 'I' for Inactive)
REMARK    1  A    between atoms: C07_2  and  C05_5
REMARK    2  A    between atoms: C01_10  and  N08_11
REMARK    3  A    between atoms: N11_14  and  C14_17
REMARK    4  A    between atoms: C17_20  and  C20_21
REMARK    5  A    between atoms: C15_25  and  N23_26
REMARK    6  A    between atoms: C24_27  and  C26_29
REMARK                            x       y       z     vdW  Elec       q    Type
REMARK                         _______ _______ _______ _____ _____    ______ ____
ROOT
ATOM      1  C14 M9R C1110      19.138  11.465 -28.269  0.00  0.00    +0.000 A 
ATOM      2  C19 M9R C1110      19.333  10.739 -27.114  0.00  0.00    +0.000 A 
ATOM      3  C18 M9R C1110      19.280   9.361 -27.106  0.00  0.00    +0.000 A 
ATOM      4  C17 M9R C1110      19.020   8.695 -28.279  0.00  0.00    +0.000 A 
ATOM      5  C16 M9R C1110      18.811   9.414 -29.440  0.00  0.00    +0.000 A 
ATOM      6  C15 M9R C1110      18.862  10.796 -29.458  0.00  0.00    +0.000 A 
ENDROOT
BRANCH   1  10
ATOM      7  N08 M9R C1110      19.204  15.522 -27.520  0.00  0.00    +0.000 N 
ATOM      8  C13 M9R C1110      18.114  14.672 -27.121  0.00  0.00    +0.000 C 
ATOM      9  C12 M9R C1110      18.002  13.642 -28.225  0.00  0.00    +0.000 C 
ATOM     10  N11 M9R C1110      19.212  12.851 -28.118  0.00  0.00    +0.000 N 
ATOM     11  C10 M9R C1110      20.461  13.498 -27.785  0.00  0.00    +0.000 C 
ATOM     12  C09 M9R C1110      20.334  14.947 -28.211  0.00  0.00    +0.000 C 
BRANCH   7  18
ATOM     13  C05 M9R C1110      18.005  18.872 -26.634  0.00  0.00    +0.000 A 
ATOM     14  C04 M9R C1110      19.163  19.599 -26.768  0.00  0.00    +0.000 A 
ATOM     15  C03 M9R C1110      20.330  18.966 -27.138  0.00  0.00    +0.000 A 
ATOM     16  C02 M9R C1110      20.322  17.610 -27.382  0.00  0.00    +0.000 A 
ATOM     17  C06 M9R C1110      17.993  17.513 -26.885  0.00  0.00    +0.000 A 
ATOM     18  C01 M9R C1110      19.165  16.881 -27.257  0.00  0.00    +0.000 A 
BRANCH  13  20
ATOM     19  F35 M9R C1110      15.722  18.970 -26.579  0.00  0.00    +0.000 F 
ATOM     20  C07 M9R C1110      16.782  19.592 -26.217  0.00  0.00    +0.000 C 
ATOM     21  F33 M9R C1110      16.800  20.773 -26.694  0.00  0.00    +0.000 F 
ATOM     22  F34 M9R C1110      16.729  19.774 -24.945  0.00  0.00    +0.000 F 
ENDBRANCH  13  20
ENDBRANCH   7  18
ENDBRANCH   1  10
BRANCH   4  23
ATOM     23  C20 M9R C1110      18.946   7.201 -28.276  0.00  0.00    +0.000 C 
ATOM     24  O22 M9R C1110      18.693   6.590 -29.324  0.00  0.00    +0.000 OA
ATOM     25  O21 M9R C1110      19.116   6.591 -27.211  0.00  0.00    +0.000 OA
ENDBRANCH   4  23
BRANCH   6  26
ATOM     26  N23 M9R C1110      18.654  11.410 -30.645  0.00  0.00    +0.000 NA
ATOM     27  C24 M9R C1110      19.570  11.861 -31.506  0.00  0.00    +0.000 C 
ATOM     28  O25 M9R C1110      19.236  12.277 -32.605  0.00  0.00    +0.000 OA
BRANCH  27  29
ATOM     29  C26 M9R C1110      21.038  11.925 -31.172  0.00  0.00    +0.000 A 
ATOM     30  C31 M9R C1110      21.914  12.414 -32.127  0.00  0.00    +0.000 A 
ATOM     31  C30 M9R C1110      23.271  12.507 -31.854  0.00  0.00    +0.000 A 
ATOM     32  C29 M9R C1110      23.756  12.106 -30.617  0.00  0.00    +0.000 A 
ATOM     33  F32 M9R C1110      25.061  12.178 -30.337  0.00  0.00    +0.000 F 
ATOM     34  C28 M9R C1110      22.897  11.617 -29.658  0.00  0.00    +0.000 A 
ATOM     35  C27 M9R C1110      21.553  11.536 -29.946  0.00  0.00    +0.000 A 
ENDBRANCH  27  29
ENDBRANCH   6  26
TORSDOF 6
