REMARK  Name = ligand_pdbs\MBI.pdb
REMARK  5 active torsions:
REMARK  status: ('A' for Active; 'I' for Inactive)
REMARK    1  A    between atoms: C08_8  and  N09_9
REMARK    2  A    between atoms: N12_12  and  C15_15
REMARK    3  A    between atoms: C16_16  and  N17_17
REMARK    4  A    between atoms: C18_18  and  C20_20
REMARK    5  A    between atoms: C28_28  and  C31_31
REMARK                            x       y       z     vdW  Elec       q    Type
REMARK                         _______ _______ _______ _____ _____    ______ ____
ROOT
ATOM      1  C15 MBI C1115      20.660  12.976 -28.885  0.00  0.00    +0.000 A 
ATOM      2  C16 MBI C1115      19.837  12.107 -29.635  0.00  0.00    +0.000 A 
ATOM      3  C27 MBI C1115      20.361  10.988 -30.253  0.00  0.00    +0.000 A 
ATOM      4  C28 MBI C1115      21.727  10.727 -30.136  0.00  0.00    +0.000 A 
ATOM      5  C29 MBI C1115      22.560  11.584 -29.406  0.00  0.00    +0.000 A 
ATOM      6  C30 MBI C1115      22.030  12.711 -28.777  0.00  0.00    +0.000 A 
ENDROOT
BRANCH   1  10
ATOM      7  N09 MBI C1115      18.966  16.637 -27.538  0.00  0.00    +0.000 N 
ATOM      8  C10 MBI C1115      19.887  16.004 -26.598  0.00  0.00    +0.000 C 
ATOM      9  C11 MBI C1115      20.723  14.866 -27.219  0.00  0.00    +0.000 C 
ATOM     10  N12 MBI C1115      19.988  14.162 -28.271  0.00  0.00    +0.000 N 
ATOM     11  C13 MBI C1115      19.445  15.049 -29.320  0.00  0.00    +0.000 C 
ATOM     12  C14 MBI C1115      19.360  16.527 -28.935  0.00  0.00    +0.000 C 
BRANCH   7  20
ATOM     13  C01 MBI C1115      20.893  19.157 -27.587  0.00  0.00    +0.000 C 
ATOM     14  C02 MBI C1115      19.414  19.136 -27.172  0.00  0.00    +0.000 A 
ATOM     15  C03 MBI C1115      18.922  20.369 -26.771  0.00  0.00    +0.000 A 
ATOM     16  C04 MBI C1115      17.608  20.486 -26.342  0.00  0.00    +0.000 A 
ATOM     17  C05 MBI C1115      16.801  19.358 -26.318  0.00  0.00    +0.000 A 
ATOM     18 CL6  MBI C1115      15.125  19.527 -25.781  0.00  0.00    +0.000 Cl
ATOM     19  C07 MBI C1115      17.273  18.116 -26.720  0.00  0.00    +0.000 A 
ATOM     20  C08 MBI C1115      18.575  17.990 -27.149  0.00  0.00    +0.000 A 
ENDBRANCH   7  20
ENDBRANCH   1  10
BRANCH   2  21
ATOM     21  N17 MBI C1115      18.405  12.449 -29.687  0.00  0.00    +0.000 NA
ATOM     22  C18 MBI C1115      17.515  12.388 -30.856  0.00  0.00    +0.000 C 
ATOM     23  O19 MBI C1115      17.928  11.993 -31.911  0.00  0.00    +0.000 OA
BRANCH  22  24
ATOM     24  C20 MBI C1115      16.040  12.848 -30.644  0.00  0.00    +0.000 A 
ATOM     25  C21 MBI C1115      15.223  12.916 -31.767  0.00  0.00    +0.000 A 
ATOM     26  C22 MBI C1115      13.896  13.317 -31.659  0.00  0.00    +0.000 A 
ATOM     27  C23 MBI C1115      13.320  13.685 -30.440  0.00  0.00    +0.000 A 
ATOM     28 BR1  MBI C1115      11.391  14.235 -30.425  0.00  0.00    +0.000 Br
ATOM     29  C25 MBI C1115      14.160  13.616 -29.298  0.00  0.00    +0.000 A 
ATOM     30  C26 MBI C1115      15.496  13.210 -29.394  0.00  0.00    +0.000 A 
ENDBRANCH  22  24
ENDBRANCH   2  21
BRANCH   4  31
ATOM     31  C31 MBI C1115      22.285   9.484 -30.845  0.00  0.00    +0.000 C 
ATOM     32  O32 MBI C1115      22.684   8.483 -30.176  0.00  0.00    +0.000 OA
ATOM     33  O33 MBI C1115      22.321   9.481 -32.113  0.00  0.00    +0.000 OA
ENDBRANCH   4  31
TORSDOF 5
