REMARK  Name = ligand_pdbs\MES.pdb
REMARK  3 active torsions:
REMARK  status: ('A' for Active; 'I' for Inactive)
REMARK    1  A    between atoms: N4_4  and  C7_7
REMARK    2  A    between atoms: C7_7  and  C8_8
REMARK    3  A    between atoms: C8_8  and  S_9
REMARK                            x       y       z     vdW  Elec       q    Type
REMARK                         _______ _______ _______ _____ _____    ______ ____
ROOT
ATOM      1  O1  MES A 304       0.187   3.755  -0.957  0.00  0.00    +0.000 OA
ATOM      2  C2  MES A 304       0.634   2.641  -1.773  0.00  0.00    +0.000 C 
ATOM      3  C3  MES A 304       1.493   1.745  -0.981  0.00  0.00    +0.000 C 
ATOM      4  N4  MES A 304       0.700   1.195   0.159  0.00  0.00    +0.000 NA
ATOM      5  C5  MES A 304       0.201   2.306   1.011  0.00  0.00    +0.000 C 
ATOM      6  C6  MES A 304      -0.632   3.266   0.135  0.00  0.00    +0.000 C 
ENDROOT
BRANCH   4   7
ATOM      7  C7  MES A 304       1.510   0.278   1.004  0.00  0.00    +0.000 C 
BRANCH   7   8
ATOM      8  C8  MES A 304       2.064  -0.912   0.196  0.00  0.00    +0.000 C 
BRANCH   8   9
ATOM      9  S   MES A 304       3.028  -1.999   1.285  0.00  0.00    +0.000 S 
ATOM     10  O1S MES A 304       2.166  -2.508   2.340  0.00  0.00    +0.000 OA
ATOM     11  O2S MES A 304       4.113  -1.238   1.882  0.00  0.00    +0.000 OA
ATOM     12  O3S MES A 304       3.560  -3.113   0.517  0.00  0.00    +0.000 OA
ENDBRANCH   8   9
ENDBRANCH   7   8
ENDBRANCH   4   7
TORSDOF 3
