REMARK  Name = ligand_pdbs\MG.pdb
REMARK  0 active torsions:
REMARK  status: ('A' for Active; 'I' for Inactive)
REMARK                            x       y       z     vdW  Elec       q    Type
REMARK                         _______ _______ _______ _____ _____    ______ ____
ROOT
ATOM      1 MG   MG  A 251      -8.199 -10.697  24.085  0.00  0.00    +0.000 Mg
ENDROOT
TORSDOF 0
