REMARK  Name = ligand_pdbs\MPO.pdb
REMARK  4 active torsions:
REMARK  status: ('A' for Active; 'I' for Inactive)
REMARK    1  A    between atoms: S1_1  and  C1_6
REMARK    2  A    between atoms: N1_5  and  C3_9
REMARK    3  A    between atoms: C1_6  and  C2_8
REMARK    4  A    between atoms: C2_8  and  C3_9
REMARK                            x       y       z     vdW  Elec       q    Type
REMARK                         _______ _______ _______ _____ _____    ______ ____
ROOT
ATOM      1  C3  MPO C1109      14.196 -35.082 -48.742  0.00  0.00    +0.000 C 
ENDROOT
BRANCH   1   3
ATOM      2  O4  MPO C1109      12.440 -31.565 -49.988  0.00  0.00    +0.000 OA
ATOM      3  N1  MPO C1109      13.386 -34.272 -49.676  0.00  0.00    +0.000 NA
ATOM      4  C4  MPO C1109      14.235 -33.178 -50.182  0.00  0.00    +0.000 C 
ATOM      5  C5  MPO C1109      13.435 -32.096 -50.848  0.00  0.00    +0.000 C 
ATOM      6  C6  MPO C1109      11.526 -32.591 -49.629  0.00  0.00    +0.000 C 
ATOM      7  C7  MPO C1109      12.194 -33.765 -48.959  0.00  0.00    +0.000 C 
ENDBRANCH   1   3
BRANCH   1   8
ATOM      8  C2  MPO C1109      14.666 -36.407 -49.294  0.00  0.00    +0.000 C 
BRANCH   8   9
ATOM      9  C1  MPO C1109      15.762 -37.060 -48.470  0.00  0.00    +0.000 C 
BRANCH   9  10
ATOM     10  S1  MPO C1109      15.149 -38.050 -47.121  0.00  0.00    +0.000 S 
ATOM     11  O1  MPO C1109      13.727 -37.841 -47.045  0.00  0.00    +0.000 OA
ATOM     12  O2  MPO C1109      15.513 -39.515 -47.489  0.00  0.00    +0.000 OA
ATOM     13  O3  MPO C1109      15.944 -37.680 -45.981  0.00  0.00    +0.000 OA
ENDBRANCH   9  10
ENDBRANCH   8   9
ENDBRANCH   1   8
TORSDOF 4
