REMARK  Name = ligand_pdbs\MXD.pdb
REMARK  0 active torsions:
REMARK  status: ('A' for Active; 'I' for Inactive)
REMARK                            x       y       z     vdW  Elec       q    Type
REMARK                         _______ _______ _______ _____ _____    ______ ____
ROOT
ATOM      1  NAO MXD A1002      -3.069   3.369  -4.676  0.00  0.00    +0.000 NA
ATOM      2  CAE MXD A1002      -2.749   2.096  -4.986  0.00  0.00    +0.000 C 
ATOM      3  CAF MXD A1002      -2.840   1.699  -6.317  0.00  0.00    +0.000 C 
ATOM      4  NAC MXD A1002      -2.322   1.165  -4.003  0.00  0.00    +0.000 N 
ATOM      5  OAN MXD A1002      -2.247   1.520  -2.802  0.00  0.00    +0.000 OA
ATOM      6  CAA MXD A1002      -2.014  -0.097  -4.402  0.00  0.00    +0.000 C 
ATOM      7  NAM MXD A1002      -1.604  -1.026  -3.499  0.00  0.00    +0.000 NA
ATOM      8  NAB MXD A1002      -2.115  -0.480  -5.711  0.00  0.00    +0.000 NA
ATOM      9  CAD MXD A1002      -2.529   0.382  -6.691  0.00  0.00    +0.000 C 
ATOM     10  NAI MXD A1002      -2.610   0.019  -8.078  0.00  0.00    +0.000 N 
ATOM     11  CAG MXD A1002      -3.580   0.842  -8.851  0.00  0.00    +0.000 C 
ATOM     12  CAK MXD A1002      -2.818  -1.413  -8.384  0.00  0.00    +0.000 C 
ATOM     13  CAL MXD A1002      -2.501  -1.641  -9.877  0.00  0.00    +0.000 C 
ATOM     14  CAJ MXD A1002      -2.214  -0.336 -10.656  0.00  0.00    +0.000 C 
ATOM     15  CAH MXD A1002      -3.212   0.797 -10.338  0.00  0.00    +0.000 C 
ENDROOT
TORSDOF 0
