REMARK  Name = ligand_pdbs\N59.pdb
REMARK  6 active torsions:
REMARK  status: ('A' for Active; 'I' for Inactive)
REMARK    1  A    between atoms: C26_7  and  S24_8
REMARK    2  A    between atoms: S24_8  and  N23_11
REMARK    3  A    between atoms: N23_11  and  C15_12
REMARK    4  A    between atoms: C17_14  and  C20_15
REMARK    5  A    between atoms: C14_20  and  N11_21
REMARK    6  A    between atoms: N08_26  and  C01_27
REMARK                            x       y       z     vdW  Elec       q    Type
REMARK                         _______ _______ _______ _____ _____    ______ ____
ROOT
ATOM      1  C15 N59 C1110      19.512  11.367 -29.411  0.00  0.00    +0.000 A 
ATOM      2  C16 N59 C1110      19.555   9.971 -29.525  0.00  0.00    +0.000 A 
ATOM      3  C17 N59 C1110      19.434   9.168 -28.380  0.00  0.00    +0.000 A 
ATOM      4  C18 N59 C1110      19.263   9.741 -27.124  0.00  0.00    +0.000 A 
ATOM      5  C19 N59 C1110      19.217  11.109 -27.010  0.00  0.00    +0.000 A 
ATOM      6  C14 N59 C1110      19.347  11.904 -28.138  0.00  0.00    +0.000 A 
ENDROOT
BRANCH   6   7
ATOM      7  N11 N59 C1110      19.288  13.269 -27.938  0.00  0.00    +0.000 N 
ATOM      8  C10 N59 C1110      20.519  14.055 -27.946  0.00  0.00    +0.000 C 
ATOM      9  C09 N59 C1110      20.073  15.406 -28.459  0.00  0.00    +0.000 C 
ATOM     10  C12 N59 C1110      17.996  13.883 -27.709  0.00  0.00    +0.000 C 
ATOM     11  C13 N59 C1110      18.254  14.991 -26.730  0.00  0.00    +0.000 C 
ATOM     12  N08 N59 C1110      19.149  15.900 -27.443  0.00  0.00    +0.000 N 
BRANCH  12  13
ATOM     13  C01 N59 C1110      19.131  17.246 -27.181  0.00  0.00    +0.000 A 
ATOM     14  C06 N59 C1110      17.935  17.846 -26.826  0.00  0.00    +0.000 A 
ATOM     15  C05 N59 C1110      17.913  19.199 -26.569  0.00  0.00    +0.000 A 
ATOM     16 CL7  N59 C1110      16.329  19.915 -26.089  0.00  0.00    +0.000 Cl
ATOM     17  C04 N59 C1110      19.095  19.944 -26.684  0.00  0.00    +0.000 A 
ATOM     18  C03 N59 C1110      20.297  19.335 -27.054  0.00  0.00    +0.000 A 
ATOM     19  C02 N59 C1110      20.314  17.977 -27.293  0.00  0.00    +0.000 A 
ENDBRANCH  12  13
ENDBRANCH   6   7
BRANCH   3  20
ATOM     20  C20 N59 C1110      19.472   7.668 -28.445  0.00  0.00    +0.000 C 
ATOM     21  O22 N59 C1110      20.004   7.075 -29.420  0.00  0.00    +0.000 OA
ATOM     22  O21 N59 C1110      18.955   7.052 -27.483  0.00  0.00    +0.000 OA
ENDBRANCH   3  20
BRANCH   1  23
ATOM     23  N23 N59 C1110      19.620  12.243 -30.455  0.00  0.00    +0.000 NA
BRANCH  23  24
ATOM     24  S24 N59 C1110      19.842  11.861 -32.003  0.00  0.00    +0.000 S 
ATOM     25  O25 N59 C1110      19.642  13.029 -32.814  0.00  0.00    +0.000 OA
ATOM     26  O27 N59 C1110      18.811  10.932 -32.360  0.00  0.00    +0.000 OA
BRANCH  24  33
ATOM     27  F33 N59 C1110      24.751  12.005 -31.186  0.00  0.00    +0.000 F 
ATOM     28  C31 N59 C1110      23.719  11.400 -31.790  0.00  0.00    +0.000 A 
ATOM     29  C30 N59 C1110      23.943  10.283 -32.596  0.00  0.00    +0.000 A 
ATOM     30  C29 N59 C1110      22.866   9.662 -33.220  0.00  0.00    +0.000 A 
ATOM     31  C28 N59 C1110      21.575  10.159 -33.028  0.00  0.00    +0.000 A 
ATOM     32  C32 N59 C1110      22.429  11.898 -31.601  0.00  0.00    +0.000 A 
ATOM     33  C26 N59 C1110      21.339  11.282 -32.223  0.00  0.00    +0.000 A 
ENDBRANCH  24  33
ENDBRANCH  23  24
ENDBRANCH   1  23
TORSDOF 6
