REMARK  Name = ligand_pdbs\N5X.pdb
REMARK  5 active torsions:
REMARK  status: ('A' for Active; 'I' for Inactive)
REMARK    1  A    between atoms: C18_7  and  C17_8
REMARK    2  A    between atoms: N2_10  and  C11_11
REMARK    3  A    between atoms: C13_13  and  C16_14
REMARK    4  A    between atoms: C10_19  and  N1_20
REMARK    5  A    between atoms: N3_25  and  C5_26
REMARK                            x       y       z     vdW  Elec       q    Type
REMARK                         _______ _______ _______ _____ _____    ______ ____
ROOT
ATOM      1  C11 N5X C1105      19.258  13.225 -29.648  0.00  0.00    +0.000 A 
ATOM      2  C12 N5X C1105      19.905  12.220 -30.330  0.00  0.00    +0.000 A 
ATOM      3  C13 N5X C1105      21.266  12.137 -30.221  0.00  0.00    +0.000 A 
ATOM      4  C14 N5X C1105      22.008  13.036 -29.457  0.00  0.00    +0.000 A 
ATOM      5  C15 N5X C1105      21.355  14.057 -28.778  0.00  0.00    +0.000 A 
ATOM      6  C10 N5X C1105      19.964  14.153 -28.868  0.00  0.00    +0.000 A 
ENDROOT
BRANCH   6   7
ATOM      7  N1  N5X C1105      19.296  15.182 -28.194  0.00  0.00    +0.000 N 
ATOM      8  C7  N5X C1105      19.700  15.571 -26.856  0.00  0.00    +0.000 C 
ATOM      9  C6  N5X C1105      20.071  17.015 -27.093  0.00  0.00    +0.000 C 
ATOM     10  C8  N5X C1105      18.216  15.927 -28.854  0.00  0.00    +0.000 C 
ATOM     11  C9  N5X C1105      17.661  16.962 -27.893  0.00  0.00    +0.000 C 
ATOM     12  N3  N5X C1105      18.825  17.712 -27.443  0.00  0.00    +0.000 N 
BRANCH  12  13
ATOM     13  C5  N5X C1105      18.792  19.110 -27.387  0.00  0.00    +0.000 A 
ATOM     14  C   N5X C1105      19.986  19.778 -27.760  0.00  0.00    +0.000 A 
ATOM     15  C4  N5X C1105      17.666  19.853 -26.972  0.00  0.00    +0.000 A 
ATOM     16  C24 N5X C1105      16.327  19.298 -26.538  0.00  0.00    +0.000 C 
ATOM     17  C3  N5X C1105      17.772  21.242 -26.973  0.00  0.00    +0.000 A 
ATOM     18  C2  N5X C1105      18.960  21.888 -27.359  0.00  0.00    +0.000 A 
ATOM     19  C1  N5X C1105      20.092  21.168 -27.745  0.00  0.00    +0.000 A 
ATOM     20  C25 N5X C1105      21.371  21.885 -28.146  0.00  0.00    +0.000 C 
ENDBRANCH  12  13
ENDBRANCH   6   7
BRANCH   1  23
ATOM     21  C17 N5X C1105      17.178  12.952 -30.773  0.00  0.00    +0.000 C 
ATOM     22  O2  N5X C1105      17.609  12.444 -31.803  0.00  0.00    +0.000 OA
ATOM     23  N2  N5X C1105      17.888  13.351 -29.744  0.00  0.00    +0.000 NA
BRANCH  21  30
ATOM     24 CL1  N5X C1105      11.354  14.533 -30.462  0.00  0.00    +0.000 Cl
ATOM     25  C21 N5X C1105      13.110  14.053 -30.426  0.00  0.00    +0.000 A 
ATOM     26  C20 N5X C1105      13.703  13.789 -31.656  0.00  0.00    +0.000 A 
ATOM     27  C19 N5X C1105      15.019  13.417 -31.750  0.00  0.00    +0.000 A 
ATOM     28  C22 N5X C1105      13.888  13.926 -29.256  0.00  0.00    +0.000 A 
ATOM     29  C23 N5X C1105      15.227  13.563 -29.335  0.00  0.00    +0.000 A 
ATOM     30  C18 N5X C1105      15.760  13.290 -30.593  0.00  0.00    +0.000 A 
ENDBRANCH  21  30
ENDBRANCH   1  23
BRANCH   3  31
ATOM     31  C16 N5X C1105      21.902  11.039 -30.985  0.00  0.00    +0.000 C 
ATOM     32  O1  N5X C1105      22.838  10.370 -30.497  0.00  0.00    +0.000 OA
ATOM     33  O3  N5X C1105      21.430  10.848 -32.123  0.00  0.00    +0.000 OA
ENDBRANCH   3  31
TORSDOF 5
