REMARK  Name = ligand_pdbs\NA.pdb
REMARK  0 active torsions:
REMARK  status: ('A' for Active; 'I' for Inactive)
REMARK                            x       y       z     vdW  Elec       q    Type
REMARK                         _______ _______ _______ _____ _____    ______ ____
ROOT
ATOM      1 NA   NA  A 202       9.467 -32.204  54.965  0.00  0.00    +0.000 Na
ENDROOT
TORSDOF 0
