REMARK  Name = ligand_pdbs\NO3.pdb
REMARK  0 active torsions:
REMARK  status: ('A' for Active; 'I' for Inactive)
REMARK                            x       y       z     vdW  Elec       q    Type
REMARK                         _______ _______ _______ _____ _____    ______ ____
ROOT
ATOM      1  N   NO3 A 304       4.131  30.279  37.135  0.00  0.00    +0.000 N 
ATOM      2  O1  NO3 A 304       3.001  30.388  36.664  0.00  0.00    +0.000 OA
ATOM      3  O2  NO3 A 304       5.143  29.687  36.365  0.00  0.00    +0.000 OA
ATOM      4  O3  NO3 A 304       4.414  30.746  38.429  0.00  0.00    +0.000 OA
ENDROOT
TORSDOF 0
