REMARK  Name = ligand_pdbs\NXF.pdb
REMARK  5 active torsions:
REMARK  status: ('A' for Active; 'I' for Inactive)
REMARK    1  A    between atoms: C13_3  and  C17_5
REMARK    2  A    between atoms: C_7  and  C12_10
REMARK    3  A    between atoms: C16_12  and  C1B_16
REMARK    4  A    between atoms: C1H_22  and  C1K_24
REMARK    5  A    between atoms: C1L_25  and  C1N_27
REMARK                            x       y       z     vdW  Elec       q    Type
REMARK                         _______ _______ _______ _____ _____    ______ ____
ROOT
ATOM      1  C1B NXF A 801     -31.454 -46.927 -10.090  0.00  0.00    +0.000 A 
ATOM      2  C1E NXF A 801     -31.899 -45.624  -9.896  0.00  0.00    +0.000 A 
ATOM      3  C1F NXF A 801     -30.149 -47.107 -10.557  0.00  0.00    +0.000 A 
ATOM      4  C1G NXF A 801     -31.076 -44.505 -10.153  0.00  0.00    +0.000 A 
ATOM      5  C1H NXF A 801     -29.297 -46.044 -10.819  0.00  0.00    +0.000 A 
ATOM      6  C1I NXF A 801     -29.752 -44.705 -10.626  0.00  0.00    +0.000 A 
ATOM      7  C1L NXF A 801     -31.561 -43.149  -9.943  0.00  0.00    +0.000 C 
ATOM      8  C1M NXF A 801     -28.962 -43.494 -10.868  0.00  0.00    +0.000 C 
ATOM      9  N13 NXF A 801     -30.831 -42.109 -10.171  0.00  0.00    +0.000 NA
ATOM     10  N14 NXF A 801     -29.550 -42.275 -10.626  0.00  0.00    +0.000 NA
ATOM     11  O1  NXF A 801     -27.801 -43.383 -11.274  0.00  0.00    +0.000 OA
ENDROOT
BRANCH   1  15
ATOM     12  N1  NXF A 801     -34.216 -49.236  -9.548  0.00  0.00    +0.000 NA
ATOM     13  N   NXF A 801     -33.133 -50.021  -9.308  0.00  0.00    +0.000 N 
ATOM     14  C12 NXF A 801     -31.956 -49.354  -9.459  0.00  0.00    +0.000 A 
ATOM     15  C16 NXF A 801     -32.319 -48.071  -9.813  0.00  0.00    +0.000 A 
ATOM     16  C1A NXF A 801     -33.278 -51.420  -8.939  0.00  0.00    +0.000 C 
ATOM     17  C1C NXF A 801     -33.714 -48.067  -9.847  0.00  0.00    +0.000 A 
BRANCH  14  20
ATOM     18  C13 NXF A 801     -29.829 -50.544 -10.186  0.00  0.00    +0.000 A 
ATOM     19  C15 NXF A 801     -27.577 -51.514  -7.465  0.00  0.00    +0.000 A 
ATOM     20  C   NXF A 801     -30.677 -50.006  -9.246  0.00  0.00    +0.000 A 
ATOM     21  C1  NXF A 801     -28.636 -51.015  -8.235  0.00  0.00    +0.000 A 
ATOM     22  C14 NXF A 801     -28.658 -51.122  -9.625  0.00  0.00    +0.000 A 
ATOM     23  C18 NXF A 801     -27.568 -51.755 -10.263  0.00  0.00    +0.000 A 
ATOM     24  C19 NXF A 801     -26.521 -52.133  -8.105  0.00  0.00    +0.000 A 
ATOM     25  C1D NXF A 801     -26.518 -52.252  -9.510  0.00  0.00    +0.000 A 
ATOM     26  S   NXF A 801     -30.049 -50.211  -7.642  0.00  0.00    +0.000 S 
BRANCH  18  28
ATOM     27  N12 NXF A 801     -30.329 -50.484 -12.709  0.00  0.00    +0.000 NA
ATOM     28  C17 NXF A 801     -30.101 -50.514 -11.590  0.00  0.00    +0.000 C 
ENDBRANCH  18  28
ENDBRANCH  14  20
ENDBRANCH   1  15
BRANCH   5  30
ATOM     29  O   NXF A 801     -27.964 -47.717 -12.067  0.00  0.00    +0.000 OA
ATOM     30  C1K NXF A 801     -27.924 -46.477 -11.336  0.00  0.00    +0.000 C 
ATOM     31  C1O NXF A 801     -26.757 -46.621 -10.365  0.00  0.00    +0.000 C 
ATOM     32  C1P NXF A 801     -26.660 -48.365 -12.023  0.00  0.00    +0.000 C 
ATOM     33  C1Q NXF A 801     -25.763 -47.545 -11.084  0.00  0.00    +0.000 C 
ENDBRANCH   5  30
BRANCH   7  34
ATOM     34  C1N NXF A 801     -32.975 -42.890  -9.434  0.00  0.00    +0.000 C 
ATOM     35  N15 NXF A 801     -33.660 -41.614  -9.919  0.00  0.00    +0.000 NA
ENDBRANCH   7  34
TORSDOF 5
