REMARK  Name = ligand_pdbs\ODN.pdb
REMARK  0 active torsions:
REMARK  status: ('A' for Active; 'I' for Inactive)
REMARK                            x       y       z     vdW  Elec       q    Type
REMARK                         _______ _______ _______ _____ _____    ______ ____
ROOT
ATOM      1  O3  ODN C1105      21.610  22.480 -28.542  0.00  0.00    +0.000 OA
ATOM      2  C17 ODN C1105      22.798  22.456 -28.312  0.00  0.00    +0.000 C 
ATOM      3  C10 ODN C1105      23.443  21.460 -27.428  0.00  0.00    +0.000 C 
ATOM      4  C18 ODN C1105      22.532  20.989 -26.319  0.00  0.00    +0.000 C 
ATOM      5  O4  ODN C1105      21.918  22.166 -25.785  0.00  0.00    +0.000 OA
ATOM      6  O1  ODN C1105      23.383  20.268 -25.411  0.00  0.00    +0.000 OA
ATOM      7  C8  ODN C1105      24.149  19.226 -26.029  0.00  0.00    +0.000 C 
ATOM      8  C19 ODN C1105      21.412  20.061 -26.777  0.00  0.00    +0.000 C 
ATOM      9  O5  ODN C1105      20.491  20.721 -27.654  0.00  0.00    +0.000 OA
ATOM     10  C6  ODN C1105      22.061  18.810 -27.393  0.00  0.00    +0.000 C 
ATOM     11  C3  ODN C1105      21.586  17.538 -26.651  0.00  0.00    +0.000 C 
ATOM     12  C5  ODN C1105      20.245  17.068 -27.226  0.00  0.00    +0.000 C 
ATOM     13  C4  ODN C1105      21.381  17.759 -25.150  0.00  0.00    +0.000 C 
ATOM     14  C2  ODN C1105      22.613  16.400 -26.771  0.00  0.00    +0.000 C 
ATOM     15  C1  ODN C1105      23.485  16.476 -28.019  0.00  0.00    +0.000 C 
ATOM     16  C13 ODN C1105      23.797  23.410 -28.842  0.00  0.00    +0.000 C 
ATOM     17  C14 ODN C1105      23.762  23.347 -30.350  0.00  0.00    +0.000 C 
ATOM     18  C12 ODN C1105      25.090  22.935 -28.181  0.00  0.00    +0.000 C 
ATOM     19  C11 ODN C1105      24.599  22.303 -26.912  0.00  0.00    +0.000 C 
ATOM     20  O2  ODN C1105      24.146  23.330 -26.030  0.00  0.00    +0.000 OA
ATOM     21  C15 ODN C1105      25.897  21.874 -28.924  0.00  0.00    +0.000 C 
ATOM     22  C16 ODN C1105      25.380  20.436 -28.728  0.00  0.00    +0.000 C 
ATOM     23  C9  ODN C1105      23.917  20.271 -28.261  0.00  0.00    +0.000 C 
ATOM     24  C7  ODN C1105      23.608  18.984 -27.445  0.00  0.00    +0.000 C 
ATOM     25  C   ODN C1105      24.305  17.764 -28.088  0.00  0.00    +0.000 C 
ATOM     26  O   ODN C1105      25.582  17.521 -27.475  0.00  0.00    +0.000 OA
ENDROOT
TORSDOF 0
