REMARK  Name = ligand_pdbs\P2R.pdb
REMARK  6 active torsions:
REMARK  status: ('A' for Active; 'I' for Inactive)
REMARK    1  A    between atoms: N1_1  and  C24_15
REMARK    2  A    between atoms: C10_8  and  C13_9
REMARK    3  A    between atoms: C15_10  and  C14_26
REMARK    4  A    between atoms: C24_15  and  C25_31
REMARK    5  A    between atoms: N2_19  and  C14_26
REMARK    6  A    between atoms: O2_20  and  C25_31
REMARK                            x       y       z     vdW  Elec       q    Type
REMARK                         _______ _______ _______ _____ _____    ______ ____
ROOT
ATOM      1  C13 P2R A 801     151.973 121.950 122.525  0.00  0.00    +0.000 C 
ATOM      2  O1  P2R A 801     151.923 121.521 123.666  0.00  0.00    +0.000 OA
ATOM      3  N2  P2R A 801     152.994 121.526 121.652  0.00  0.00    +0.000 N 
ATOM      4  H23 P2R A 801     152.949 121.928 120.754  0.00  0.00    +0.000 HD
ENDROOT
BRANCH   1  11
ATOM      5  N1  P2R A 801     147.865 125.519 120.377  0.00  0.00    +0.000 N 
ATOM      6  C4  P2R A 801     148.505 123.802 118.916  0.00  0.00    +0.000 A 
ATOM      7  C5  P2R A 801     147.688 124.869 119.082  0.00  0.00    +0.000 A 
ATOM      8  C6  P2R A 801     146.628 125.449 118.088  0.00  0.00    +0.000 C 
ATOM      9  C7  P2R A 801     149.316 123.630 120.126  0.00  0.00    +0.000 A 
ATOM     10  C8  P2R A 801     148.884 124.716 120.984  0.00  0.00    +0.000 A 
ATOM     11  C10 P2R A 801     150.914 122.945 122.003  0.00  0.00    +0.000 A 
ATOM     12  C1  P2R A 801     146.195 124.370 117.033  0.00  0.00    +0.000 C 
ATOM     13  C2  P2R A 801     147.369 123.527 116.475  0.00  0.00    +0.000 C 
ATOM     14  C3  P2R A 801     148.420 123.012 117.573  0.00  0.00    +0.000 C 
ATOM     15  C9  P2R A 801     150.336 122.789 120.703  0.00  0.00    +0.000 A 
ATOM     16  C11 P2R A 801     150.441 124.064 122.801  0.00  0.00    +0.000 A 
ATOM     17  C12 P2R A 801     149.440 124.958 122.334  0.00  0.00    +0.000 A 
BRANCH   5  18
ATOM     18  C24 P2R A 801     147.200 126.667 120.956  0.00  0.00    +0.000 C 
BRANCH  18  19
ATOM     19  C25 P2R A 801     146.064 126.253 121.960  0.00  0.00    +0.000 C 
BRANCH  19  20
ATOM     20  O2  P2R A 801     145.187 125.342 121.400  0.00  0.00    +0.000 OA
ATOM     21  H26 P2R A 801     145.685 124.689 120.878  0.00  0.00    +0.000 HD
ENDBRANCH  19  20
ENDBRANCH  18  19
ENDBRANCH   5  18
ENDBRANCH   1  11
BRANCH   3  22
ATOM     22  C14 P2R A 801     154.082 120.574 121.824  0.00  0.00    +0.000 C 
BRANCH  22  24
ATOM     23  N3  P2R A 801     152.299 115.776 122.418  0.00  0.00    +0.000 NA
ATOM     24  C15 P2R A 801     153.641 119.181 121.287  0.00  0.00    +0.000 C 
ATOM     25  C17 P2R A 801     152.760 116.815 121.571  0.00  0.00    +0.000 C 
ATOM     26  C20 P2R A 801     153.712 118.926 119.826  0.00  0.00    +0.000 C 
ATOM     27  C21 P2R A 801     151.922 114.528 121.925  0.00  0.00    +0.000 C 
ATOM     28  C22 P2R A 801     152.002 114.291 120.461  0.00  0.00    +0.000 C 
ATOM     29  N4  P2R A 801     151.491 113.539 122.782  0.00  0.00    +0.000 N 
ATOM     30  C16 P2R A 801     153.168 118.132 122.097  0.00  0.00    +0.000 C 
ATOM     31  C18 P2R A 801     152.854 116.608 120.094  0.00  0.00    +0.000 C 
ATOM     32  C19 P2R A 801     153.336 117.704 119.279  0.00  0.00    +0.000 C 
ATOM     33  C23 P2R A 801     152.444 115.292 119.618  0.00  0.00    +0.000 C 
ATOM     34  H25 P2R A 801     151.714 112.581 122.592  0.00  0.00    +0.000 HD
ATOM     35  H24 P2R A 801     151.139 113.784 123.666  0.00  0.00    +0.000 HD
ENDBRANCH  22  24
ENDBRANCH   3  22
TORSDOF 6
