REMARK  Name = ligand_pdbs\PEG.pdb
REMARK  4 active torsions:
REMARK  status: ('A' for Active; 'I' for Inactive)
REMARK    1  A    between atoms: C1_1  and  C2_3
REMARK    2  A    between atoms: C2_3  and  O2_4
REMARK    3  A    between atoms: O2_4  and  C3_5
REMARK    4  A    between atoms: C3_5  and  C4_6
REMARK                            x       y       z     vdW  Elec       q    Type
REMARK                         _______ _______ _______ _____ _____    ______ ____
ROOT
ATOM      1  O2  PEG A1075      83.630 -93.159 -17.268  0.00  0.00    +0.000 OA
ENDROOT
BRANCH   1   2
ATOM      2  C2  PEG A1075      83.099 -94.237 -18.045  0.00  0.00    +0.000 C 
BRANCH   2   3
ATOM      3  C1  PEG A1075      81.574 -94.271 -17.939  0.00  0.00    +0.000 C 
ATOM      4  O1  PEG A1075      81.074 -95.352 -18.725  0.00  0.00    +0.000 OA
ENDBRANCH   2   3
ENDBRANCH   1   2
BRANCH   1   5
ATOM      5  C3  PEG A1075      85.045 -93.128 -17.450  0.00  0.00    +0.000 C 
BRANCH   5   6
ATOM      6  C4  PEG A1075      85.638 -91.935 -16.704  0.00  0.00    +0.000 C 
ATOM      7  O4  PEG A1075      87.048 -91.906 -16.909  0.00  0.00    +0.000 OA
ENDBRANCH   5   6
ENDBRANCH   1   5
TORSDOF 4
