REMARK  Name = ligand_pdbs\PJ0.pdb
REMARK  0 active torsions:
REMARK  status: ('A' for Active; 'I' for Inactive)
REMARK                            x       y       z     vdW  Elec       q    Type
REMARK                         _______ _______ _______ _____ _____    ______ ____
ROOT
ATOM      1  C1  PJ0 A 701     -29.161 -40.327  -9.279  0.00  0.00    +0.000 C 
ATOM      2  C2  PJ0 A 701     -29.629 -41.676  -9.735  0.00  0.00    +0.000 C 
ATOM      3  C3  PJ0 A 701     -28.727 -42.578 -10.188  0.00  0.00    +0.000 C 
ATOM      4  C4  PJ0 A 701     -29.204 -43.829 -10.608  0.00  0.00    +0.000 C 
ATOM      5  C6  PJ0 A 701     -28.794 -45.921 -11.457  0.00  0.00    +0.000 C 
ATOM      6  C7  PJ0 A 701     -30.140 -46.248 -11.418  0.00  0.00    +0.000 C 
ATOM      7  C8  PJ0 A 701     -31.049 -45.345 -10.961  0.00  0.00    +0.000 C 
ATOM      8  N10 PJ0 A 701     -31.424 -43.172 -10.084  0.00  0.00    +0.000 NA
ATOM      9  C11 PJ0 A 701     -30.987 -42.001  -9.692  0.00  0.00    +0.000 C 
ATOM     10  N5  PJ0 A 701     -28.368 -44.753 -11.062  0.00  0.00    +0.000 NA
ATOM     11  C9  PJ0 A 701     -30.584 -44.093 -10.541  0.00  0.00    +0.000 C 
ATOM     12  N12 PJ0 A 701     -31.893 -41.067  -9.223  0.00  0.00    +0.000 NA
ENDROOT
TORSDOF 0
