REMARK  Name = ligand_pdbs\PK0.pdb
REMARK  4 active torsions:
REMARK  status: ('A' for Active; 'I' for Inactive)
REMARK    1  A    between atoms: C3_8  and  C1B_9
REMARK    2  A    between atoms: N1_16  and  C1A_17
REMARK    3  A    between atoms: C4A_20  and  C41_23
REMARK    4  A    between atoms: C5A_21  and  C51_25
REMARK                            x       y       z     vdW  Elec       q    Type
REMARK                         _______ _______ _______ _____ _____    ______ ____
ROOT
ATOM      1  N4  PK0 A 950      28.880  -0.125   3.415  0.00  0.00    +0.000 N 
ATOM      2  C31 PK0 A 950      31.021   0.854   3.749  0.00  0.00    +0.000 C 
ATOM      3  C4  PK0 A 950      29.016  -1.432   2.748  0.00  0.00    +0.000 C 
ATOM      4  O2  PK0 A 950      29.727   2.655   5.394  0.00  0.00    +0.000 OA
ATOM      5  C2  PK0 A 950      29.262   1.841   4.685  0.00  0.00    +0.000 C 
ATOM      6  O5  PK0 A 950      26.934   0.694   2.381  0.00  0.00    +0.000 OA
ATOM      7  C5  PK0 A 950      27.892   0.850   3.094  0.00  0.00    +0.000 C 
ATOM      8  C3  PK0 A 950      29.709   0.464   4.436  0.00  0.00    +0.000 C 
ATOM      9  N1  PK0 A 950      28.303   2.043   3.742  0.00  0.00    +0.000 N 
ENDROOT
BRANCH   8  10
ATOM     10  C1B PK0 A 950      29.718  -0.229   5.766  0.00  0.00    +0.000 A 
ATOM     11  C2B PK0 A 950      30.798  -0.135   6.642  0.00  0.00    +0.000 A 
ATOM     12  C3B PK0 A 950      30.729  -0.826   7.852  0.00  0.00    +0.000 A 
ATOM     13  C4B PK0 A 950      29.628  -1.555   8.269  0.00  0.00    +0.000 A 
ATOM     14  C5B PK0 A 950      28.558  -1.641   7.367  0.00  0.00    +0.000 A 
ATOM     15  C6B PK0 A 950      28.612  -0.980   6.151  0.00  0.00    +0.000 A 
ATOM     16  O4  PK0 A 950      29.621  -2.252   9.489  0.00  0.00    +0.000 OA
ENDBRANCH   8  10
BRANCH   9  17
ATOM     17  C1A PK0 A 950      27.405   3.125   3.713  0.00  0.00    +0.000 A 
ATOM     18  C2A PK0 A 950      27.918   4.426   3.580  0.00  0.00    +0.000 A 
ATOM     19  C3A PK0 A 950      27.108   5.546   3.558  0.00  0.00    +0.000 A 
ATOM     20  C4A PK0 A 950      25.724   5.374   3.649  0.00  0.00    +0.000 A 
ATOM     21  C5A PK0 A 950      25.193   4.112   3.778  0.00  0.00    +0.000 A 
ATOM     22  C6A PK0 A 950      26.017   2.988   3.808  0.00  0.00    +0.000 A 
BRANCH  21  23
ATOM     23  C51 PK0 A 950      23.729   3.980   3.909  0.00  0.00    +0.000 C 
ATOM     24  F1  PK0 A 950      23.013   4.664   3.169  0.00  0.00    +0.000 F 
ATOM     25  F2  PK0 A 950      23.203   4.252   4.999  0.00  0.00    +0.000 F 
ATOM     26  F3  PK0 A 950      23.204   2.881   3.677  0.00  0.00    +0.000 F 
ENDBRANCH  21  23
BRANCH  20  27
ATOM     27  C41 PK0 A 950      24.880   6.606   3.521  0.00  0.00    +0.000 C 
ATOM     28  N41 PK0 A 950      24.395   7.741   3.516  0.00  0.00    +0.000 NA
ENDBRANCH  20  27
ENDBRANCH   9  17
TORSDOF 4
