REMARK  Name = ligand_pdbs\PK1.pdb
REMARK  2 active torsions:
REMARK  status: ('A' for Active; 'I' for Inactive)
REMARK    1  A    between atoms: C3_8  and  C1B_9
REMARK    2  A    between atoms: N1_16  and  C1A_17
REMARK                            x       y       z     vdW  Elec       q    Type
REMARK                         _______ _______ _______ _____ _____    ______ ____
ROOT
ATOM      1  N4  PK1 A 950      28.221  -0.010   3.520  0.00  0.00    +0.000 N 
ATOM      2  C31 PK1 A 950      30.619   0.598   3.853  0.00  0.00    +0.000 C 
ATOM      3  C4  PK1 A 950      28.300  -1.372   2.944  0.00  0.00    +0.000 C 
ATOM      4  O2  PK1 A 950      29.326   2.634   5.446  0.00  0.00    +0.000 OA
ATOM      5  C2  PK1 A 950      28.730   1.888   4.721  0.00  0.00    +0.000 C 
ATOM      6  S5  PK1 A 950      26.043   0.871   2.431  0.00  0.00    +0.000 S 
ATOM      7  C5  PK1 A 950      27.216   0.986   3.272  0.00  0.00    +0.000 C 
ATOM      8  C3  PK1 A 950      29.186   0.544   4.455  0.00  0.00    +0.000 C 
ATOM      9  N1  PK1 A 950      27.551   2.184   4.019  0.00  0.00    +0.000 N 
ENDROOT
BRANCH   9  10
ATOM     10  C1A PK1 A 950      26.962   3.475   3.996  0.00  0.00    +0.000 A 
ATOM     11  C2A PK1 A 950      27.705   4.632   3.775  0.00  0.00    +0.000 A 
ATOM     12  C3A PK1 A 950      27.023   5.837   3.789  0.00  0.00    +0.000 A 
ATOM     13  C4A PK1 A 950      25.646   5.869   3.947  0.00  0.00    +0.000 A 
ATOM     14  C5A PK1 A 950      24.924   4.742   4.234  0.00  0.00    +0.000 A 
ATOM     15  C6A PK1 A 950      25.584   3.537   4.177  0.00  0.00    +0.000 A 
ATOM     16 CL1  PK1 A 950      23.226   4.760   4.484  0.00  0.00    +0.000 Cl
ATOM     17 CL2  PK1 A 950      24.849   7.401   3.960  0.00  0.00    +0.000 Cl
ENDBRANCH   9  10
BRANCH   8  18
ATOM     18  C1B PK1 A 950      29.209  -0.193   5.807  0.00  0.00    +0.000 A 
ATOM     19  C2B PK1 A 950      30.304  -0.043   6.647  0.00  0.00    +0.000 A 
ATOM     20  C3B PK1 A 950      30.340  -0.702   7.865  0.00  0.00    +0.000 A 
ATOM     21  C4B PK1 A 950      29.296  -1.543   8.271  0.00  0.00    +0.000 A 
ATOM     22  C5B PK1 A 950      28.183  -1.650   7.417  0.00  0.00    +0.000 A 
ATOM     23  C6B PK1 A 950      28.136  -0.970   6.210  0.00  0.00    +0.000 A 
ATOM     24  O4  PK1 A 950      29.340  -2.198   9.505  0.00  0.00    +0.000 OA
ENDBRANCH   8  18
TORSDOF 2
