REMARK  Name = ligand_pdbs\PO4_A_1919 .pdb
REMARK  0 active torsions:
REMARK  status: ('A' for Active; 'I' for Inactive)
REMARK                            x       y       z     vdW  Elec       q    Type
REMARK                         _______ _______ _______ _____ _____    ______ ____
ROOT
ATOM      1  P   PO4 A1919      -3.726  39.397 -10.579  0.00  0.00    +0.000 P 
ATOM      2  O1  PO4 A1919      -3.656  40.899 -10.422  0.00  0.00    +0.000 OA
ATOM      3  O2  PO4 A1919      -2.848  38.730  -9.555  0.00  0.00    +0.000 OA
ATOM      4  O3  PO4 A1919      -5.159  38.953 -10.387  0.00  0.00    +0.000 OA
ATOM      5  O4  PO4 A1919      -3.260  39.018 -11.966  0.00  0.00    +0.000 OA
ENDROOT
TORSDOF 0
