REMARK  Name = ligand_pdbs\PRO.pdb
REMARK  1 active torsions:
REMARK  status: ('A' for Active; 'I' for Inactive)
REMARK    1  A    between atoms: CA_2  and  C_3
REMARK                            x       y       z     vdW  Elec       q    Type
REMARK                         _______ _______ _______ _____ _____    ______ ____
ROOT
ATOM      1  N   PRO A1101     -15.583 -22.342 -11.092  0.00  0.00    +0.000 NA
ATOM      2  CA  PRO A1101     -16.747 -22.085 -10.234  0.00  0.00    +0.000 C 
ATOM      3  CB  PRO A1101     -17.809 -21.612 -11.229  0.00  0.00    +0.000 C 
ATOM      4  CG  PRO A1101     -17.019 -20.948 -12.297  0.00  0.00    +0.000 C 
ATOM      5  CD  PRO A1101     -15.731 -21.723 -12.421  0.00  0.00    +0.000 C 
ENDROOT
BRANCH   2   6
ATOM      6  C   PRO A1101     -17.213 -23.334  -9.491  0.00  0.00    +0.000 C 
ATOM      7  O   PRO A1101     -16.424 -24.243  -9.226  0.00  0.00    +0.000 OA
ATOM      8  OXT PRO A1101     -18.388 -23.460  -9.140  0.00  0.00    +0.000 OA
ENDBRANCH   2   6
TORSDOF 1
