REMARK  Name = ligand_pdbs\PUI.pdb
REMARK  0 active torsions:
REMARK  status: ('A' for Active; 'I' for Inactive)
REMARK                            x       y       z     vdW  Elec       q    Type
REMARK                         _______ _______ _______ _____ _____    ______ ____
ROOT
ATOM      1  C1  PUI A 701     -26.957 -41.950 -10.354  0.00  0.00    +0.000 C 
ATOM      2  C2  PUI A 701     -28.403 -42.345 -10.206  0.00  0.00    +0.000 C 
ATOM      3  C3  PUI A 701     -29.315 -41.391  -9.849  0.00  0.00    +0.000 C 
ATOM      4  C4  PUI A 701     -30.672 -41.729  -9.706  0.00  0.00    +0.000 C 
ATOM      5  C7  PUI A 701     -30.248 -43.955 -10.271  0.00  0.00    +0.000 C 
ATOM      6  C8  PUI A 701     -30.707 -45.279 -10.494  0.00  0.00    +0.000 C 
ATOM      7  C12 PUI A 701     -28.855 -43.675 -10.432  0.00  0.00    +0.000 C 
ATOM      8  N5  PUI A 701     -31.569 -40.737  -9.342  0.00  0.00    +0.000 NA
ATOM      9  N6  PUI A 701     -31.088 -42.969  -9.918  0.00  0.00    +0.000 NA
ATOM     10  C9  PUI A 701     -29.794 -46.240 -10.852  0.00  0.00    +0.000 C 
ATOM     11  C10 PUI A 701     -28.445 -45.897 -10.990  0.00  0.00    +0.000 C 
ATOM     12  N11 PUI A 701     -28.019 -44.666 -10.786  0.00  0.00    +0.000 NA
ENDROOT
TORSDOF 0
