REMARK  Name = ligand_pdbs\PWX.pdb
REMARK  0 active torsions:
REMARK  status: ('A' for Active; 'I' for Inactive)
REMARK                            x       y       z     vdW  Elec       q    Type
REMARK                         _______ _______ _______ _____ _____    ______ ____
ROOT
ATOM      1  C1  PWX A 801     -27.485 -42.989 -10.196  0.00  0.00    +0.000 C 
ATOM      2  N1  PWX A 801     -28.017 -41.727  -9.813  0.00  0.00    +0.000 N 
ATOM      3  C12 PWX A 801     -28.558 -43.862 -10.172  0.00  0.00    +0.000 C 
ATOM      4  C17 PWX A 801     -26.080 -44.827 -10.877  0.00  0.00    +0.000 C 
ATOM      5  C16 PWX A 801     -27.188 -45.694 -10.846  0.00  0.00    +0.000 C 
ATOM      6  C14 PWX A 801     -27.278 -40.459  -9.685  0.00  0.00    +0.000 C 
ATOM      7  C13 PWX A 801     -26.205 -43.473 -10.559  0.00  0.00    +0.000 C 
ATOM      8  C15 PWX A 801     -28.444 -45.216 -10.491  0.00  0.00    +0.000 C 
ATOM      9  N   PWX A 801     -29.672 -43.139  -9.790  0.00  0.00    +0.000 NA
ATOM     10  C   PWX A 801     -29.315 -41.892  -9.589  0.00  0.00    +0.000 C 
ATOM     11  N12 PWX A 801     -30.152 -40.959  -9.219  0.00  0.00    +0.000 NA
ATOM     12 CL   PWX A 801     -24.780 -42.491 -10.629  0.00  0.00    +0.000 Cl
ENDROOT
TORSDOF 0
