REMARK  Name = ligand_pdbs\Q73.pdb
REMARK  13 active torsions:
REMARK  status: ('A' for Active; 'I' for Inactive)
REMARK    1  A    between atoms: C27_2  and  C26_4
REMARK    2  A    between atoms: C26_4  and  C25_5
REMARK    3  A    between atoms: C25_5  and  C24_7
REMARK    4  A    between atoms: C24_7  and  C23_8
REMARK    5  A    between atoms: C23_8  and  C22_10
REMARK    6  A    between atoms: C21_11  and  C19_12
REMARK    7  A    between atoms: C17_14  and  C16_15
REMARK    8  A    between atoms: C16_15  and  C15_17
REMARK    9  A    between atoms: C15_17  and  C13_18
REMARK   10  A    between atoms: C12_20  and  C11_21
REMARK   11  A    between atoms: C10_22  and  C9_23
REMARK   12  A    between atoms: C9_23  and  C3_25
REMARK   13  A    between atoms: C2_27  and  C5_28
REMARK                            x       y       z     vdW  Elec       q    Type
REMARK                         _______ _______ _______ _____ _____    ______ ____
ROOT
ATOM      1  C13 Q73 C1124      19.939  15.624 -27.342  0.00  0.00    +0.000 C 
ATOM      2  C14 Q73 C1124      21.364  16.042 -27.598  0.00  0.00    +0.000 C 
ATOM      3  C12 Q73 C1124      19.483  14.417 -27.711  0.00  0.00    +0.000 C 
ENDROOT
BRANCH   3   4
ATOM      4  C11 Q73 C1124      20.380  13.499 -28.361  0.00  0.00    +0.000 C 
ATOM      5  C10 Q73 C1124      19.965  12.309 -28.730  0.00  0.00    +0.000 C 
BRANCH   5   6
ATOM      6  C9  Q73 C1124      20.916  11.367 -29.426  0.00  0.00    +0.000 C 
ATOM      7  N   Q73 C1124      22.303  11.844 -29.275  0.00  0.00    +0.000 NA
BRANCH   6   8
ATOM      8  C3  Q73 C1124      20.524  11.238 -30.896  0.00  0.00    +0.000 C 
ATOM      9  O   Q73 C1124      19.254  10.597 -30.922  0.00  0.00    +0.000 OA
ATOM     10  C2  Q73 C1124      18.877  10.230 -32.246  0.00  0.00    +0.000 C 
ATOM     11  C1  Q73 C1124      18.628  11.521 -33.030  0.00  0.00    +0.000 C 
ATOM     12  C8  Q73 C1124      17.470  12.329 -32.435  0.00  0.00    +0.000 C 
ATOM     13  C   Q73 C1124      19.916  12.348 -33.056  0.00  0.00    +0.000 C 
ATOM     14  O1  Q73 C1124      20.902  11.669 -33.839  0.00  0.00    +0.000 OA
ATOM     15  C4  Q73 C1124      20.481  12.576 -31.658  0.00  0.00    +0.000 C 
BRANCH  10  16
ATOM     16  C5  Q73 C1124      17.655   9.348 -32.194  0.00  0.00    +0.000 C 
ATOM     17  C6  Q73 C1124      17.092   9.092 -31.015  0.00  0.00    +0.000 C 
ATOM     18  C7  Q73 C1124      15.872   8.213 -30.934  0.00  0.00    +0.000 C 
ENDBRANCH  10  16
ENDBRANCH   6   8
ENDBRANCH   5   6
ENDBRANCH   3   4
BRANCH   1  19
ATOM     19  C15 Q73 C1124      18.991  16.595 -26.680  0.00  0.00    +0.000 C 
BRANCH  19  20
ATOM     20  C16 Q73 C1124      18.456  17.544 -27.745  0.00  0.00    +0.000 C 
ATOM     21  C18 Q73 C1124      17.809  16.882 -28.950  0.00  0.00    +0.000 C 
BRANCH  20  24
ATOM     22  C19 Q73 C1124      17.734  19.732 -26.948  0.00  0.00    +0.000 C 
ATOM     23  C20 Q73 C1124      16.710  20.680 -26.338  0.00  0.00    +0.000 C 
ATOM     24  C17 Q73 C1124      17.427  18.459 -27.128  0.00  0.00    +0.000 C 
BRANCH  22  26
ATOM     25  C22 Q73 C1124      19.477  21.290 -27.704  0.00  0.00    +0.000 C 
ATOM     26  C21 Q73 C1124      19.087  20.073 -27.446  0.00  0.00    +0.000 C 
BRANCH  25  27
ATOM     27  C23 Q73 C1124      20.871  21.509 -28.248  0.00  0.00    +0.000 C 
ATOM     28  O2  Q73 C1124      21.875  20.792 -27.502  0.00  0.00    +0.000 OA
BRANCH  27  29
ATOM     29  C24 Q73 C1124      21.132  22.999 -28.144  0.00  0.00    +0.000 C 
BRANCH  29  30
ATOM     30  C25 Q73 C1124      22.607  23.338 -28.325  0.00  0.00    +0.000 C 
ATOM     31  N1  Q73 C1124      23.326  22.176 -28.883  0.00  0.00    +0.000 NA
BRANCH  30  32
ATOM     32  C26 Q73 C1124      23.234  23.806 -27.007  0.00  0.00    +0.000 C 
BRANCH  32  34
ATOM     33  O4  Q73 C1124      25.416  24.232 -27.844  0.00  0.00    +0.000 OA
ATOM     34  C27 Q73 C1124      24.378  24.728 -27.351  0.00  0.00    +0.000 C 
ATOM     35  O3  Q73 C1124      24.236  25.955 -27.136  0.00  0.00    +0.000 OA
ENDBRANCH  32  34
ENDBRANCH  30  32
ENDBRANCH  29  30
ENDBRANCH  27  29
ENDBRANCH  25  27
ENDBRANCH  22  26
ENDBRANCH  20  24
ENDBRANCH  19  20
ENDBRANCH   1  19
TORSDOF 13
