REMARK  Name = ligand_pdbs\QKY.pdb
REMARK  4 active torsions:
REMARK  status: ('A' for Active; 'I' for Inactive)
REMARK    1  A    between atoms: C10_7  and  C9_19
REMARK    2  A    between atoms: C10_7  and  C11_22
REMARK    3  A    between atoms: C1_16  and  C3_18
REMARK    4  A    between atoms: C1_16  and  C9_19
REMARK                            x       y       z     vdW  Elec       q    Type
REMARK                         _______ _______ _______ _____ _____    ______ ____
ROOT
ATOM      1  N1  QKY A 701      12.985 -47.286 -16.448  0.00  0.00    +0.000 NA
ATOM      2  C17 QKY A 701      16.236 -48.826 -17.124  0.00  0.00    +0.000 C 
ATOM      3  O   QKY A 701      14.752 -47.832 -19.421  0.00  0.00    +0.000 OA
ATOM      4  C   QKY A 701      14.311 -47.728 -18.293  0.00  0.00    +0.000 C 
ATOM      5  N2  QKY A 701      14.495 -48.309 -14.834  0.00  0.00    +0.000 NA
ATOM      6  N   QKY A 701      14.925 -48.161 -17.145  0.00  0.00    +0.000 N 
ATOM      7  C1  QKY A 701      12.976 -47.045 -17.889  0.00  0.00    +0.000 C 
ATOM      8  C2  QKY A 701      14.112 -47.925 -16.038  0.00  0.00    +0.000 C 
ENDROOT
BRANCH   7  14
ATOM      9  C4  QKY A 701      11.792 -48.027 -19.941  0.00  0.00    +0.000 A 
ATOM     10  C5  QKY A 701      10.647 -48.469 -20.594  0.00  0.00    +0.000 A 
ATOM     11  C6  QKY A 701       9.455 -48.592 -19.905  0.00  0.00    +0.000 A 
ATOM     12  C7  QKY A 701       9.406 -48.280 -18.558  0.00  0.00    +0.000 A 
ATOM     13  C8  QKY A 701      10.549 -47.841 -17.898  0.00  0.00    +0.000 A 
ATOM     14  C3  QKY A 701      11.758 -47.694 -18.583  0.00  0.00    +0.000 A 
ENDBRANCH   7  14
BRANCH   7  15
ATOM     15  C9  QKY A 701      13.096 -45.546 -18.241  0.00  0.00    +0.000 C 
BRANCH  15  16
ATOM     16  C10 QKY A 701      13.451 -44.593 -17.095  0.00  0.00    +0.000 C 
BRANCH  16  22
ATOM     17  C13 QKY A 701      11.417 -41.795 -15.282  0.00  0.00    +0.000 C 
ATOM     18  C15 QKY A 701      11.463 -41.294 -17.756  0.00  0.00    +0.000 C 
ATOM     19  C16 QKY A 701      12.522 -42.385 -17.946  0.00  0.00    +0.000 C 
ATOM     20  C14 QKY A 701      11.522 -40.697 -16.345  0.00  0.00    +0.000 C 
ATOM     21  C12 QKY A 701      12.477 -42.884 -15.496  0.00  0.00    +0.000 C 
ATOM     22  C11 QKY A 701      12.404 -43.498 -16.896  0.00  0.00    +0.000 C 
ENDBRANCH  16  22
ENDBRANCH  15  16
ENDBRANCH   7  15
TORSDOF 4
