REMARK  Name = ligand_pdbs\QL1.pdb
REMARK  3 active torsions:
REMARK  status: ('A' for Active; 'I' for Inactive)
REMARK    1  A    between atoms: C10_7  and  C11_17
REMARK    2  A    between atoms: C10_7  and  C_22
REMARK    3  A    between atoms: C14_19  and  O_20
REMARK                            x       y       z     vdW  Elec       q    Type
REMARK                         _______ _______ _______ _____ _____    ______ ____
ROOT
ATOM      1  N1  QL1 A 701      15.184 -47.086 -16.324  0.00  0.00    +0.000 N 
ATOM      2  C10 QL1 A 701      13.271 -45.817 -16.788  0.00  0.00    +0.000 C 
ATOM      3  C20 QL1 A 701      16.475 -47.780 -16.443  0.00  0.00    +0.000 C 
ATOM      4  O1  QL1 A 701      15.099 -46.155 -18.433  0.00  0.00    +0.000 OA
ATOM      5  C19 QL1 A 701      14.612 -46.353 -17.335  0.00  0.00    +0.000 C 
ATOM      6  C18 QL1 A 701      14.379 -47.023 -15.209  0.00  0.00    +0.000 C 
ATOM      7  N2  QL1 A 701      14.710 -47.608 -14.048  0.00  0.00    +0.000 NA
ATOM      8  N   QL1 A 701      13.311 -46.341 -15.406  0.00  0.00    +0.000 NA
ENDROOT
BRANCH   2  14
ATOM      9  C4  QL1 A 701      14.504 -42.065 -16.206  0.00  0.00    +0.000 C 
ATOM     10  C5  QL1 A 701      14.558 -43.614 -16.261  0.00  0.00    +0.000 C 
ATOM     11  C6  QL1 A 701      13.406 -41.626 -15.215  0.00  0.00    +0.000 C 
ATOM     12  C7  QL1 A 701      12.040 -42.171 -15.683  0.00  0.00    +0.000 C 
ATOM     13  C8  QL1 A 701      12.095 -43.719 -15.739  0.00  0.00    +0.000 C 
ATOM     14  C   QL1 A 701      13.196 -44.217 -16.731  0.00  0.00    +0.000 C 
ATOM     15  C3  QL1 A 701      14.183 -41.514 -17.613  0.00  0.00    +0.000 C 
ATOM     16  C9  QL1 A 701      11.717 -41.621 -17.088  0.00  0.00    +0.000 C 
ATOM     17  C2  QL1 A 701      12.817 -42.060 -18.080  0.00  0.00    +0.000 C 
ATOM     18  C1  QL1 A 701      12.874 -43.610 -18.133  0.00  0.00    +0.000 C 
ENDBRANCH   2  14
BRANCH   2  21
ATOM     19  C13 QL1 A 701      11.066 -47.294 -19.564  0.00  0.00    +0.000 A 
ATOM     20  C15 QL1 A 701       9.735 -47.084 -17.568  0.00  0.00    +0.000 A 
ATOM     21  C11 QL1 A 701      12.076 -46.457 -17.526  0.00  0.00    +0.000 A 
ATOM     22  C16 QL1 A 701      10.847 -46.617 -16.885  0.00  0.00    +0.000 A 
ATOM     23  C14 QL1 A 701       9.836 -47.399 -18.916  0.00  0.00    +0.000 A 
ATOM     24  C12 QL1 A 701      12.170 -46.827 -18.869  0.00  0.00    +0.000 A 
BRANCH  23  26
ATOM     25  C17 QL1 A 701       8.646 -47.801 -20.960  0.00  0.00    +0.000 C 
ATOM     26  O   QL1 A 701       8.644 -47.673 -19.540  0.00  0.00    +0.000 OA
ENDBRANCH  23  26
ENDBRANCH   2  21
TORSDOF 3
