REMARK  Name = ligand_pdbs\R18.pdb
REMARK  0 active torsions:
REMARK  status: ('A' for Active; 'I' for Inactive)
REMARK                            x       y       z     vdW  Elec       q    Type
REMARK                         _______ _______ _______ _____ _____    ______ ____
ROOT
ATOM      1  C1  R18 A1000       0.414  28.070   4.103  0.00  0.00    +0.000 C 
ATOM      2  C2  R18 A1000       1.195  26.999   4.832  0.00  0.00    +0.000 C 
ATOM      3  C3  R18 A1000       2.661  27.140   4.532  0.00  0.00    +0.000 C 
ATOM      4  C4  R18 A1000       3.174  28.457   4.794  0.00  0.00    +0.000 C 
ATOM      5  C5  R18 A1000       2.367  29.553   4.780  0.00  0.00    +0.000 C 
ATOM      6  C6  R18 A1000       2.973  30.906   5.116  0.00  0.00    +0.000 C 
ATOM      7  C7  R18 A1000       2.207  32.030   4.457  0.00  0.00    +0.000 C 
ATOM      8  C8  R18 A1000       0.733  31.962   4.898  0.00  0.00    +0.000 C 
ATOM      9  C9  R18 A1000       0.124  30.597   4.514  0.00  0.00    +0.000 C 
ATOM     10  C10 R18 A1000       0.912  29.480   4.476  0.00  0.00    +0.000 C 
ATOM     11  C11 R18 A1000      -1.316  30.583   4.251  0.00  0.00    +0.000 C 
ATOM     12  C12 R18 A1000      -2.102  31.675   4.310  0.00  0.00    +0.000 C 
ATOM     13  C13 R18 A1000      -1.535  33.039   4.664  0.00  0.00    +0.000 C 
ATOM     14  C14 R18 A1000      -0.056  33.066   4.261  0.00  0.00    +0.000 C 
ATOM     15  C15 R18 A1000       0.387  34.509   4.572  0.00  0.00    +0.000 C 
ATOM     16  C16 R18 A1000      -0.899  35.299   4.311  0.00  0.00    +0.000 C 
ATOM     17  C17 R18 A1000      -2.001  34.282   3.900  0.00  0.00    +0.000 C 
ATOM     18  C18 R18 A1000      -1.725  33.228   6.189  0.00  0.00    +0.000 C 
ATOM     19  C27 R18 A1000      -2.034  34.050   2.412  0.00  0.00    +0.000 C 
ATOM     20  O83 R18 A1000       3.375  26.212   4.162  0.00  0.00    +0.000 OA
ATOM     21  O97 R18 A1000      -3.257  34.797   4.345  0.00  0.00    +0.000 OA
ENDROOT
TORSDOF 0
