REMARK  Name = ligand_pdbs\RB1.pdb
REMARK  3 active torsions:
REMARK  status: ('A' for Active; 'I' for Inactive)
REMARK    1  A    between atoms: C19_2  and  N7_5
REMARK    2  A    between atoms: C9_14  and  C11_15
REMARK    3  A    between atoms: C11_15  and  C12_16
REMARK                            x       y       z     vdW  Elec       q    Type
REMARK                         _______ _______ _______ _____ _____    ______ ____
ROOT
ATOM      1  N7  RB1 A 933     -36.344  -9.391  17.888  0.00  0.00    +0.000 N 
ATOM      2  N8  RB1 A 933     -35.733  -9.675  18.921  0.00  0.00    +0.000 NA
ATOM      3  C3  RB1 A 933     -35.998  -8.192  17.417  0.00  0.00    +0.000 C 
ATOM      4  N2  RB1 A 933     -36.362  -7.463  16.350  0.00  0.00    +0.000 NA
ATOM      5  C1  RB1 A 933     -35.829  -6.266  16.143  0.00  0.00    +0.000 C 
ATOM      6  N6  RB1 A 933     -34.927  -5.765  16.970  0.00  0.00    +0.000 NA
ATOM      7  C5  RB1 A 933     -34.514  -6.441  18.051  0.00  0.00    +0.000 C 
ATOM      8  N10 RB1 A 933     -33.613  -5.917  18.876  0.00  0.00    +0.000 NA
ATOM      9  C4  RB1 A 933     -35.053  -7.696  18.306  0.00  0.00    +0.000 C 
ATOM     10  C9  RB1 A 933     -34.912  -8.684  19.271  0.00  0.00    +0.000 C 
ENDROOT
BRANCH   1  12
ATOM     11  C20 RB1 A 933     -37.429 -11.586  18.066  0.00  0.00    +0.000 C 
ATOM     12  C19 RB1 A 933     -37.332 -10.299  17.241  0.00  0.00    +0.000 C 
ATOM     13  C21 RB1 A 933     -36.868 -10.627  15.820  0.00  0.00    +0.000 C 
ATOM     14  C22 RB1 A 933     -38.698  -9.605  17.202  0.00  0.00    +0.000 C 
ENDBRANCH   1  12
BRANCH  10  15
ATOM     15  C11 RB1 A 933     -33.978  -8.669  20.486  0.00  0.00    +0.000 C 
BRANCH  15  16
ATOM     16  C12 RB1 A 933     -34.573  -9.492  21.625  0.00  0.00    +0.000 A 
ATOM     17  C13 RB1 A 933     -34.415 -10.877  21.656  0.00  0.00    +0.000 A 
ATOM     18  C17 RB1 A 933     -35.269  -8.854  22.647  0.00  0.00    +0.000 A 
ATOM     19  C16 RB1 A 933     -35.796  -9.593  23.703  0.00  0.00    +0.000 A 
ATOM     20  C15 RB1 A 933     -35.633 -10.975  23.737  0.00  0.00    +0.000 A 
ATOM     21  C14 RB1 A 933     -34.948 -11.617  22.711  0.00  0.00    +0.000 A 
ATOM     22  O18 RB1 A 933     -34.800 -12.970  22.735  0.00  0.00    +0.000 OA
ENDBRANCH  15  16
ENDBRANCH  10  15
TORSDOF 3
