REMARK  Name = ligand_pdbs\RLJ.pdb
REMARK  8 active torsions:
REMARK  status: ('A' for Active; 'I' for Inactive)
REMARK    1  A    between atoms: C3_5  and  C8_11
REMARK    2  A    between atoms: C4_7  and  C7_10
REMARK    3  A    between atoms: C5_8  and  N9_13
REMARK    4  A    between atoms: C10_14  and  C11_16
REMARK    5  A    between atoms: C11_16  and  C13_19
REMARK    6  A    between atoms: C13_19  and  O14_20
REMARK    7  A    between atoms: O14_20  and  C16_21
REMARK    8  A    between atoms: C19_24  and  C22_27
REMARK                            x       y       z     vdW  Elec       q    Type
REMARK                         _______ _______ _______ _____ _____    ______ ____
ROOT
ATOM      1  N9  RLJ A   1      28.635   2.649   3.774  0.00  0.00    +0.000 NA
ATOM      2  C10 RLJ A   1      28.451   1.349   3.992  0.00  0.00    +0.000 C 
ATOM      3  O10 RLJ A   1      27.363   0.820   4.216  0.00  0.00    +0.000 OA
ENDROOT
BRANCH   1   8
ATOM      4  C1  RLJ A   1      28.040   4.880   3.509  0.00  0.00    +0.000 A 
ATOM      5  C2  RLJ A   1      27.069   5.874   3.478  0.00  0.00    +0.000 A 
ATOM      6  C3  RLJ A   1      25.730   5.561   3.683  0.00  0.00    +0.000 A 
ATOM      7  C4  RLJ A   1      25.344   4.242   3.919  0.00  0.00    +0.000 A 
ATOM      8  C5  RLJ A   1      27.668   3.562   3.743  0.00  0.00    +0.000 A 
ATOM      9  C6  RLJ A   1      26.325   3.254   3.943  0.00  0.00    +0.000 A 
BRANCH   7  13
ATOM     10  F1  RLJ A   1      23.709   2.546   3.997  0.00  0.00    +0.000 F 
ATOM     11  F2  RLJ A   1      23.588   4.110   5.465  0.00  0.00    +0.000 F 
ATOM     12  F3  RLJ A   1      23.021   4.489   3.414  0.00  0.00    +0.000 F 
ATOM     13  C7  RLJ A   1      23.885   3.849   4.196  0.00  0.00    +0.000 C 
ENDBRANCH   7  13
BRANCH   6  14
ATOM     14  C8  RLJ A   1      24.796   6.645   3.663  0.00  0.00    +0.000 C 
ATOM     15  N8  RLJ A   1      24.066   7.518   3.644  0.00  0.00    +0.000 NA
ENDBRANCH   6  14
ENDBRANCH   1   8
BRANCH   2  16
ATOM     16  C11 RLJ A   1      29.745   0.532   3.973  0.00  0.00    +0.000 C 
ATOM     17  O11 RLJ A   1      30.810   1.356   3.493  0.00  0.00    +0.000 OA
ATOM     18  C12 RLJ A   1      29.575  -0.706   3.090  0.00  0.00    +0.000 C 
BRANCH  16  19
ATOM     19  C13 RLJ A   1      30.064   0.097   5.394  0.00  0.00    +0.000 C 
BRANCH  19  20
ATOM     20  O14 RLJ A   1      30.133   1.285   6.195  0.00  0.00    +0.000 OA
BRANCH  20  21
ATOM     21  C16 RLJ A   1      29.925   1.018   7.512  0.00  0.00    +0.000 A 
ATOM     22  C17 RLJ A   1      29.280   1.972   8.291  0.00  0.00    +0.000 A 
ATOM     23  C18 RLJ A   1      29.051   1.730   9.640  0.00  0.00    +0.000 A 
ATOM     24  C19 RLJ A   1      29.468   0.533  10.213  0.00  0.00    +0.000 A 
ATOM     25  C20 RLJ A   1      30.111  -0.425   9.436  0.00  0.00    +0.000 A 
ATOM     26  C21 RLJ A   1      30.338  -0.182   8.085  0.00  0.00    +0.000 A 
BRANCH  24  27
ATOM     27  C22 RLJ A   1      29.246   0.313  11.610  0.00  0.00    +0.000 C 
ATOM     28  N22 RLJ A   1      29.068   0.151  12.722  0.00  0.00    +0.000 NA
ENDBRANCH  24  27
ENDBRANCH  20  21
ENDBRANCH  19  20
ENDBRANCH  16  19
ENDBRANCH   2  16
TORSDOF 8
