REMARK  Name = ligand_pdbs\SAH.pdb
REMARK  7 active torsions:
REMARK  status: ('A' for Active; 'I' for Inactive)
REMARK    1  A    between atoms: CA_2  and  CB_3
REMARK    2  A    between atoms: CA_2  and  C_6
REMARK    3  A    between atoms: CB_3  and  CG_4
REMARK    4  A    between atoms: CG_4  and  SD_5
REMARK    5  A    between atoms: SD_5  and  C5'_9
REMARK    6  A    between atoms: C5'_9  and  C4'_10
REMARK    7  A    between atoms: C1'_16  and  N9_17
REMARK                            x       y       z     vdW  Elec       q    Type
REMARK                         _______ _______ _______ _____ _____    ______ ____
ROOT
ATOM      1  C4' SAH A 701      19.375 -38.194  -4.985  0.00  0.00    +0.000 C 
ATOM      2  O4' SAH A 701      18.327 -37.218  -4.953  0.00  0.00    +0.000 OA
ATOM      3  C3' SAH A 701      19.193 -39.092  -3.773  0.00  0.00    +0.000 C 
ATOM      4  O3' SAH A 701      20.251 -38.818  -2.851  0.00  0.00    +0.000 OA
ATOM      5  C2' SAH A 701      17.849 -38.698  -3.190  0.00  0.00    +0.000 C 
ATOM      6  O2' SAH A 701      17.869 -38.700  -1.762  0.00  0.00    +0.000 OA
ATOM      7  C1' SAH A 701      17.605 -37.300  -3.724  0.00  0.00    +0.000 C 
ENDROOT
BRANCH   7   8
ATOM      8  N9  SAH A 701      16.166 -37.044  -3.960  0.00  0.00    +0.000 N 
ATOM      9  C8  SAH A 701      15.333 -37.797  -4.701  0.00  0.00    +0.000 C 
ATOM     10  N7  SAH A 701      14.080 -37.275  -4.713  0.00  0.00    +0.000 NA
ATOM     11  C5  SAH A 701      14.100 -36.157  -3.967  0.00  0.00    +0.000 C 
ATOM     12  C6  SAH A 701      13.120 -35.121  -3.559  0.00  0.00    +0.000 C 
ATOM     13  N6  SAH A 701      11.832 -35.179  -3.963  0.00  0.00    +0.000 NA
ATOM     14  N1  SAH A 701      13.554 -34.110  -2.770  0.00  0.00    +0.000 NA
ATOM     15  C2  SAH A 701      14.836 -34.036  -2.354  0.00  0.00    +0.000 C 
ATOM     16  N3  SAH A 701      15.777 -34.946  -2.684  0.00  0.00    +0.000 NA
ATOM     17  C4  SAH A 701      15.480 -36.009  -3.474  0.00  0.00    +0.000 C 
ENDBRANCH   7   8
BRANCH   1  18
ATOM     18  C5' SAH A 701      19.336 -38.980  -6.295  0.00  0.00    +0.000 C 
BRANCH  18  19
ATOM     19  SD  SAH A 701      20.793 -39.957  -6.490  0.00  0.00    +0.000 S 
BRANCH  19  20
ATOM     20  CG  SAH A 701      21.956 -38.748  -7.044  0.00  0.00    +0.000 C 
BRANCH  20  21
ATOM     21  CB  SAH A 701      22.957 -38.450  -5.925  0.00  0.00    +0.000 C 
BRANCH  21  23
ATOM     22  N   SAH A 701      23.660 -36.285  -6.969  0.00  0.00    +0.000 NA
ATOM     23  CA  SAH A 701      24.132 -37.555  -6.334  0.00  0.00    +0.000 C 
BRANCH  23  24
ATOM     24  C   SAH A 701      25.058 -38.294  -7.261  0.00  0.00    +0.000 C 
ATOM     25  O   SAH A 701      25.001 -38.146  -8.485  0.00  0.00    +0.000 OA
ATOM     26  OXT SAH A 701      25.897 -39.073  -6.805  0.00  0.00    +0.000 OA
ENDBRANCH  23  24
ENDBRANCH  21  23
ENDBRANCH  20  21
ENDBRANCH  19  20
ENDBRANCH  18  19
ENDBRANCH   1  18
TORSDOF 7
