REMARK  Name = ligand_pdbs\SAM.pdb
REMARK  7 active torsions:
REMARK  status: ('A' for Active; 'I' for Inactive)
REMARK    1  A    between atoms: CA_2  and  C_3
REMARK    2  A    between atoms: CA_2  and  CB_6
REMARK    3  A    between atoms: CB_6  and  CG_7
REMARK    4  A    between atoms: CG_7  and  SD_8
REMARK    5  A    between atoms: SD_8  and  C5'_10
REMARK    6  A    between atoms: C5'_10  and  C4'_11
REMARK    7  A    between atoms: C1'_17  and  N9_18
REMARK                            x       y       z     vdW  Elec       q    Type
REMARK                         _______ _______ _______ _____ _____    ______ ____
ROOT
ATOM      1  C4' SAM A 237       2.730   2.181  -7.876  0.00  0.00    +0.000 C 
ATOM      2  O4' SAM A 237       2.275   1.385  -8.967  0.00  0.00    +0.000 OA
ATOM      3  C3' SAM A 237       3.413   3.384  -8.483  0.00  0.00    +0.000 C 
ATOM      4  O3' SAM A 237       4.425   3.875  -7.627  0.00  0.00    +0.000 OA
ATOM      5  C2' SAM A 237       3.925   2.852  -9.805  0.00  0.00    +0.000 C 
ATOM      6  O2' SAM A 237       5.166   2.180  -9.617  0.00  0.00    +0.000 OA
ATOM      7  C1' SAM A 237       2.884   1.808 -10.175  0.00  0.00    +0.000 C 
ENDROOT
BRANCH   7   8
ATOM      8  N9  SAM A 237       1.834   2.347 -11.074  0.00  0.00    +0.000 N 
ATOM      9  C8  SAM A 237       0.501   2.485 -10.758  0.00  0.00    +0.000 C 
ATOM     10  N7  SAM A 237      -0.161   2.969 -11.836  0.00  0.00    +0.000 NA
ATOM     11  C5  SAM A 237       0.746   3.116 -12.842  0.00  0.00    +0.000 C 
ATOM     12  C6  SAM A 237       0.618   3.562 -14.156  0.00  0.00    +0.000 C 
ATOM     13  N6  SAM A 237      -0.544   3.958 -14.655  0.00  0.00    +0.000 NA
ATOM     14  N1  SAM A 237       1.733   3.607 -14.946  0.00  0.00    +0.000 NA
ATOM     15  C2  SAM A 237       2.963   3.206 -14.469  0.00  0.00    +0.000 C 
ATOM     16  N3  SAM A 237       3.105   2.755 -13.171  0.00  0.00    +0.000 NA
ATOM     17  C4  SAM A 237       1.992   2.707 -12.378  0.00  0.00    +0.000 C 
ENDBRANCH   7   8
BRANCH   1  18
ATOM     18  C5' SAM A 237       1.594   2.633  -6.982  0.00  0.00    +0.000 C 
BRANCH  18  19
ATOM     19  SD  SAM A 237       0.970   1.368  -5.847  0.00  0.00    +0.000 S 
ATOM     20  CE  SAM A 237      -0.174   2.409  -4.909  0.00  0.00    +0.000 C 
BRANCH  19  21
ATOM     21  CG  SAM A 237      -0.139   0.371  -6.905  0.00  0.00    +0.000 C 
BRANCH  21  22
ATOM     22  CB  SAM A 237       0.183  -1.137  -6.789  0.00  0.00    +0.000 C 
BRANCH  22  24
ATOM     23  N   SAM A 237       1.393  -1.567  -8.925  0.00  0.00    +0.000 NA
ATOM     24  CA  SAM A 237       1.531  -1.482  -7.442  0.00  0.00    +0.000 C 
BRANCH  24  25
ATOM     25  C   SAM A 237       2.183  -2.752  -6.883  0.00  0.00    +0.000 C 
ATOM     26  O   SAM A 237       2.724  -3.617  -7.608  0.00  0.00    +0.000 OA
ATOM     27  OXT SAM A 237       2.190  -2.931  -5.668  0.00  0.00    +0.000 OA
ENDBRANCH  24  25
ENDBRANCH  22  24
ENDBRANCH  21  22
ENDBRANCH  19  21
ENDBRANCH  18  19
ENDBRANCH   1  18
TORSDOF 7
