REMARK  Name = ligand_pdbs\SFG.pdb
REMARK  7 active torsions:
REMARK  status: ('A' for Active; 'I' for Inactive)
REMARK    1  A    between atoms: CA_2  and  C_3
REMARK    2  A    between atoms: CA_2  and  CB_6
REMARK    3  A    between atoms: CB_6  and  CG_7
REMARK    4  A    between atoms: CG_7  and  CD_8
REMARK    5  A    between atoms: CD_8  and  C5'_10
REMARK    6  A    between atoms: C5'_10  and  C4'_11
REMARK    7  A    between atoms: C1'_17  and  N9_18
REMARK                            x       y       z     vdW  Elec       q    Type
REMARK                         _______ _______ _______ _____ _____    ______ ____
ROOT
ATOM      1  C4' SFG A 701      19.734 -38.164  -4.929  0.00  0.00    +0.000 C 
ATOM      2  O4' SFG A 701      18.587 -37.315  -4.830  0.00  0.00    +0.000 OA
ATOM      3  C3' SFG A 701      19.607 -39.174  -3.790  0.00  0.00    +0.000 C 
ATOM      4  O3' SFG A 701      20.645 -38.977  -2.815  0.00  0.00    +0.000 OA
ATOM      5  C2' SFG A 701      18.223 -38.930  -3.215  0.00  0.00    +0.000 C 
ATOM      6  O2' SFG A 701      18.202 -39.156  -1.807  0.00  0.00    +0.000 OA
ATOM      7  C1' SFG A 701      17.942 -37.483  -3.564  0.00  0.00    +0.000 C 
ENDROOT
BRANCH   7   8
ATOM      8  N9  SFG A 701      16.520 -37.142  -3.790  0.00  0.00    +0.000 N 
ATOM      9  C8  SFG A 701      15.670 -37.867  -4.531  0.00  0.00    +0.000 C 
ATOM     10  N7  SFG A 701      14.439 -37.284  -4.579  0.00  0.00    +0.000 NA
ATOM     11  C5  SFG A 701      14.508 -36.148  -3.864  0.00  0.00    +0.000 C 
ATOM     12  C6  SFG A 701      13.556 -35.077  -3.533  0.00  0.00    +0.000 C 
ATOM     13  N6  SFG A 701      12.274 -35.142  -3.998  0.00  0.00    +0.000 NA
ATOM     14  N1  SFG A 701      14.000 -34.056  -2.755  0.00  0.00    +0.000 NA
ATOM     15  C2  SFG A 701      15.274 -34.024  -2.303  0.00  0.00    +0.000 C 
ATOM     16  N3  SFG A 701      16.189 -34.976  -2.590  0.00  0.00    +0.000 NA
ATOM     17  C4  SFG A 701      15.877 -36.048  -3.357  0.00  0.00    +0.000 C 
ENDBRANCH   7   8
BRANCH   1  18
ATOM     18  C5' SFG A 701      19.718 -38.824  -6.316  0.00  0.00    +0.000 C 
BRANCH  18  19
ATOM     19  CD  SFG A 701      21.012 -39.549  -6.685  0.00  0.00    +0.000 C 
ATOM     20  NE  SFG A 701      20.820 -40.375  -7.871  0.00  0.00    +0.000 NA
BRANCH  19  21
ATOM     21  CG  SFG A 701      22.090 -38.533  -6.997  0.00  0.00    +0.000 C 
BRANCH  21  22
ATOM     22  CB  SFG A 701      23.196 -38.601  -5.947  0.00  0.00    +0.000 C 
BRANCH  22  24
ATOM     23  N   SFG A 701      23.847 -36.338  -6.683  0.00  0.00    +0.000 NA
ATOM     24  CA  SFG A 701      24.337 -37.623  -6.207  0.00  0.00    +0.000 C 
BRANCH  24  25
ATOM     25  C   SFG A 701      25.235 -38.223  -7.234  0.00  0.00    +0.000 C 
ATOM     26  O   SFG A 701      25.032 -37.948  -8.443  0.00  0.00    +0.000 OA
ATOM     27  OXT SFG A 701      26.146 -38.971  -6.822  0.00  0.00    +0.000 OA
ENDBRANCH  24  25
ENDBRANCH  22  24
ENDBRANCH  21  22
ENDBRANCH  19  21
ENDBRANCH  18  19
ENDBRANCH   1  18
TORSDOF 7
