REMARK  Name = ligand_pdbs\SNC.pdb
REMARK  4 active torsions:
REMARK  status: ('A' for Active; 'I' for Inactive)
REMARK    1  A    between atoms: CA_2  and  CB_3
REMARK    2  A    between atoms: CA_2  and  C_7
REMARK    3  A    between atoms: CB_3  and  SG_4
REMARK    4  A    between atoms: SG_4  and  ND_5
REMARK                            x       y       z     vdW  Elec       q    Type
REMARK                         _______ _______ _______ _____ _____    ______ ____
ROOT
ATOM      1  N   SNC B 686     -59.040   7.103  43.220  0.00  0.00    +0.000 NA
ATOM      2  CA  SNC B 686     -59.990   6.970  42.084  0.00  0.00    +0.000 C 
ENDROOT
BRANCH   2   3
ATOM      3  C   SNC B 686     -60.613   8.346  41.971  0.00  0.00    +0.000 C 
ATOM      4  O   SNC B 686     -60.820   9.049  42.996  0.00  0.00    +0.000 OA
ENDBRANCH   2   3
BRANCH   2   5
ATOM      5  CB  SNC B 686     -60.956   5.746  42.364  0.00  0.00    +0.000 C 
BRANCH   5   6
ATOM      6  SG  SNC B 686     -60.596   4.255  41.289  0.00  0.00    +0.000 S 
BRANCH   6   7
ATOM      7  ND  SNC B 686     -60.079   2.963  42.166  0.00  0.00    +0.000 NA
ATOM      8  OE  SNC B 686     -60.377   1.828  41.769  0.00  0.00    +0.000 OA
ENDBRANCH   6   7
ENDBRANCH   5   6
ENDBRANCH   2   5
TORSDOF 4
