REMARK  Name = ligand_pdbs\SO4.pdb
REMARK  0 active torsions:
REMARK  status: ('A' for Active; 'I' for Inactive)
REMARK                            x       y       z     vdW  Elec       q    Type
REMARK                         _______ _______ _______ _____ _____    ______ ____
ROOT
ATOM      1  S   SO4 A1250      13.439 -19.356  10.723  0.00  0.00    +0.000 S 
ATOM      2  O1  SO4 A1250      12.579 -19.869  11.798  0.00  0.00    +0.000 OA
ATOM      3  O2  SO4 A1250      12.823 -19.652   9.419  0.00  0.00    +0.000 OA
ATOM      4  O3  SO4 A1250      13.584 -17.902  10.876  0.00  0.00    +0.000 OA
ATOM      5  O4  SO4 A1250      14.765 -19.986  10.797  0.00  0.00    +0.000 OA
ENDROOT
TORSDOF 0
