REMARK  Name = ligand_pdbs\SO4_A_932 .pdb
REMARK  0 active torsions:
REMARK  status: ('A' for Active; 'I' for Inactive)
REMARK                            x       y       z     vdW  Elec       q    Type
REMARK                         _______ _______ _______ _____ _____    ______ ____
ROOT
ATOM      1  S   SO4 A 932      -5.110   6.492  24.759  0.00  0.00    +0.000 S 
ATOM      2  O1  SO4 A 932      -3.739   6.916  25.097  0.00  0.00    +0.000 OA
ATOM      3  O2  SO4 A 932      -5.332   6.688  23.314  0.00  0.00    +0.000 OA
ATOM      4  O3  SO4 A 932      -5.290   5.068  25.089  0.00  0.00    +0.000 OA
ATOM      5  O4  SO4 A 932      -6.080   7.299  25.523  0.00  0.00    +0.000 OA
ENDROOT
TORSDOF 0
