REMARK  Name = ligand_pdbs\STR.pdb
REMARK  4 active torsions:
REMARK  status: ('A' for Active; 'I' for Inactive)
REMARK    1  A    between atoms: C10_11  and  C19_20
REMARK    2  A    between atoms: C13_14  and  C18_19
REMARK    3  A    between atoms: C17_18  and  C20_21
REMARK    4  A    between atoms: C20_21  and  C21_23
REMARK                            x       y       z     vdW  Elec       q    Type
REMARK                         _______ _______ _______ _____ _____    ______ ____
ROOT
ATOM      1  C1  STR A1001      -7.013 -33.238  18.701  0.00  0.00    +0.000 C 
ATOM      2  C2  STR A1001      -5.527 -33.238  18.337  0.00  0.00    +0.000 C 
ATOM      3  C3  STR A1001      -5.358 -33.412  16.934  0.00  0.00    +0.000 C 
ATOM      4  O3  STR A1001      -4.486 -34.091  16.434  0.00  0.00    +0.000 OA
ATOM      5  C4  STR A1001      -6.343 -32.848  15.994  0.00  0.00    +0.000 C 
ATOM      6  C5  STR A1001      -7.574 -32.143  16.553  0.00  0.00    +0.000 C 
ATOM      7  C6  STR A1001      -8.400 -31.483  15.597  0.00  0.00    +0.000 C 
ATOM      8  C7  STR A1001     -10.000 -31.684  16.027  0.00  0.00    +0.000 C 
ATOM      9  C8  STR A1001     -10.296 -31.527  17.256  0.00  0.00    +0.000 C 
ATOM     10  C9  STR A1001      -9.418 -32.383  18.114  0.00  0.00    +0.000 C 
ATOM     11  C10 STR A1001      -7.838 -32.126  17.895  0.00  0.00    +0.000 C 
ATOM     12  C11 STR A1001      -9.841 -32.347  19.611  0.00  0.00    +0.000 C 
ATOM     13  C12 STR A1001     -11.137 -32.524  19.825  0.00  0.00    +0.000 C 
ATOM     14  C13 STR A1001     -11.979 -31.721  19.036  0.00  0.00    +0.000 C 
ATOM     15  C14 STR A1001     -11.372 -31.734  17.513  0.00  0.00    +0.000 C 
ATOM     16  C15 STR A1001     -12.656 -30.978  16.703  0.00  0.00    +0.000 C 
ATOM     17  C16 STR A1001     -14.113 -31.206  17.625  0.00  0.00    +0.000 C 
ATOM     18  C17 STR A1001     -13.665 -32.064  18.898  0.00  0.00    +0.000 C 
ATOM     19  C18 STR A1001     -11.953 -30.241  19.538  0.00  0.00    +0.000 C 
ATOM     20  C19 STR A1001      -7.407 -30.757  18.439  0.00  0.00    +0.000 C 
ENDROOT
BRANCH  18  21
ATOM     21  C20 STR A1001     -14.401 -31.817  20.042  0.00  0.00    +0.000 C 
ATOM     22  O20 STR A1001     -15.221 -30.927  20.143  0.00  0.00    +0.000 OA
ATOM     23  C21 STR A1001     -14.297 -32.702  21.266  0.00  0.00    +0.000 C 
ENDBRANCH  18  21
TORSDOF 1
