REMARK  Name = ligand_pdbs\TES.pdb
REMARK  0 active torsions:
REMARK  status: ('A' for Active; 'I' for Inactive)
REMARK                            x       y       z     vdW  Elec       q    Type
REMARK                         _______ _______ _______ _____ _____    ______ ____
ROOT
ATOM      1  C1  TES A1000      26.961   5.275   4.748  0.00  0.00    +0.000 C 
ATOM      2  C2  TES A1000      26.087   6.515   5.050  0.00  0.00    +0.000 C 
ATOM      3  C3  TES A1000      24.714   6.380   4.455  0.00  0.00    +0.000 C 
ATOM      4  O3  TES A1000      24.044   7.406   3.939  0.00  0.00    +0.000 OA
ATOM      5  C4  TES A1000      24.125   5.047   4.457  0.00  0.00    +0.000 C 
ATOM      6  C5  TES A1000      24.808   3.909   4.803  0.00  0.00    +0.000 C 
ATOM      7  C6  TES A1000      24.089   2.569   4.790  0.00  0.00    +0.000 C 
ATOM      8  C7  TES A1000      24.877   1.474   4.059  0.00  0.00    +0.000 C 
ATOM      9  C8  TES A1000      26.306   1.363   4.667  0.00  0.00    +0.000 C 
ATOM     10  C9  TES A1000      27.068   2.720   4.565  0.00  0.00    +0.000 C 
ATOM     11  C10 TES A1000      26.323   3.925   5.244  0.00  0.00    +0.000 C 
ATOM     12  C11 TES A1000      28.555   2.700   5.098  0.00  0.00    +0.000 C 
ATOM     13  C12 TES A1000      29.337   1.534   4.449  0.00  0.00    +0.000 C 
ATOM     14  C13 TES A1000      28.617   0.164   4.602  0.00  0.00    +0.000 C 
ATOM     15  C14 TES A1000      27.190   0.297   3.973  0.00  0.00    +0.000 C 
ATOM     16  C15 TES A1000      26.668  -1.163   3.894  0.00  0.00    +0.000 C 
ATOM     17  C16 TES A1000      27.950  -1.999   3.669  0.00  0.00    +0.000 C 
ATOM     18  C17 TES A1000      29.127  -0.985   3.684  0.00  0.00    +0.000 C 
ATOM     19  O17 TES A1000      30.327  -1.590   4.206  0.00  0.00    +0.000 OA
ATOM     20  C18 TES A1000      28.587  -0.273   6.120  0.00  0.00    +0.000 C 
ATOM     21  C19 TES A1000      26.344   3.846   6.798  0.00  0.00    +0.000 C 
ENDROOT
TORSDOF 0
