REMARK  Name = ligand_pdbs\UNL.pdb
REMARK  3 active torsions:
REMARK  status: ('A' for Active; 'I' for Inactive)
REMARK    1  A    between atoms: C4_10  and  C5_12
REMARK    2  A    between atoms: C5_12  and  N3_13
REMARK    3  A    between atoms: C6_14  and  C7_16
REMARK                            x       y       z     vdW  Elec       q    Type
REMARK                         _______ _______ _______ _____ _____    ______ ____
ROOT
ATOM      1 BR1  UNL A 703      22.512 -40.954  -9.439  0.00  0.00    +0.000 Br
ATOM      2  C13 UNL A 703      21.433 -42.457  -9.777  0.00  0.00    +0.000 C 
ATOM      3  C1  UNL A 703      20.032 -42.388  -9.579  0.00  0.00    +0.000 C 
ATOM      4  N1  UNL A 703      19.505 -41.228  -9.136  0.00  0.00    +0.000 NA
ATOM      5  C12 UNL A 703      22.025 -43.610 -10.219  0.00  0.00    +0.000 C 
ATOM      6  C11 UNL A 703      21.187 -44.685 -10.471  0.00  0.00    +0.000 C 
ATOM      7  C2  UNL A 703      19.810 -44.575 -10.267  0.00  0.00    +0.000 C 
ATOM      8  N2  UNL A 703      19.234 -43.431  -9.812  0.00  0.00    +0.000 NA
ATOM      9  N6  UNL A 703      21.439 -45.950 -10.929  0.00  0.00    +0.000 NA
ATOM     10  C4  UNL A 703      20.255 -46.639 -10.996  0.00  0.00    +0.000 C 
ATOM     11  C3  UNL A 703      19.250 -45.802 -10.604  0.00  0.00    +0.000 C 
ENDROOT
BRANCH  10  12
ATOM     12  C5  UNL A 703      20.246 -48.051 -11.482  0.00  0.00    +0.000 C 
BRANCH  12  13
ATOM     13  N3  UNL A 703      20.428 -49.012 -10.407  0.00  0.00    +0.000 NA
ATOM     14  C6  UNL A 703      19.389 -49.547  -9.769  0.00  0.00    +0.000 C 
ATOM     15  O1  UNL A 703      18.227 -49.238 -10.031  0.00  0.00    +0.000 OA
BRANCH  14  16
ATOM     16  C7  UNL A 703      19.719 -50.545  -8.686  0.00  0.00    +0.000 A 
ATOM     17  N5  UNL A 703      21.001 -50.703  -8.335  0.00  0.00    +0.000 NA
ATOM     18  C10 UNL A 703      21.252 -51.579  -7.363  0.00  0.00    +0.000 A 
ATOM     19  N4  UNL A 703      20.369 -52.317  -6.702  0.00  0.00    +0.000 NA
ATOM     20  C9  UNL A 703      19.098 -52.139  -7.057  0.00  0.00    +0.000 A 
ATOM     21  C8  UNL A 703      18.717 -51.267  -8.062  0.00  0.00    +0.000 A 
ENDBRANCH  14  16
ENDBRANCH  12  13
ENDBRANCH  10  12
TORSDOF 3
