REMARK  Name = ligand_pdbs\V6A.pdb
REMARK  7 active torsions:
REMARK  status: ('A' for Active; 'I' for Inactive)
REMARK    1  A    between atoms: C11_2  and  C12_3
REMARK    2  A    between atoms: C11_2  and  N02_25
REMARK    3  A    between atoms: C12_3  and  C13_4
REMARK    4  A    between atoms: C01_9  and  C07_15
REMARK    5  A    between atoms: C03_11  and  C08_16
REMARK    6  A    between atoms: C05_13  and  C09_17
REMARK    7  A    between atoms: N04_27  and  N05_28
REMARK                            x       y       z     vdW  Elec       q    Type
REMARK                         _______ _______ _______ _____ _____    ______ ____
ROOT
ATOM      1  C10 V6A C1103      22.260  20.679  28.964  0.00  0.00    +0.000 C 
ATOM      2  C09 V6A C1103      20.432  19.772  28.383  0.00  0.00    +0.000 C 
ATOM      3  N01 V6A C1103      21.714  19.588  28.478  0.00  0.00    +0.000 NA
ATOM      4  N02 V6A C1103      21.323  21.509  29.157  0.00  0.00    +0.000 N 
ATOM      5  N03 V6A C1103      20.194  20.950  28.795  0.00  0.00    +0.000 NA
ENDROOT
BRANCH   2  10
ATOM      6  C01 V6A C1103      19.174  16.604  26.919  0.00  0.00    +0.000 A 
ATOM      7  C02 V6A C1103      17.829  16.763  26.931  0.00  0.00    +0.000 A 
ATOM      8  C03 V6A C1103      17.318  17.919  27.415  0.00  0.00    +0.000 A 
ATOM      9  C04 V6A C1103      18.126  18.914  27.906  0.00  0.00    +0.000 A 
ATOM     10  C05 V6A C1103      19.475  18.743  27.878  0.00  0.00    +0.000 A 
ATOM     11  C06 V6A C1103      19.989  17.583  27.383  0.00  0.00    +0.000 A 
BRANCH   6  12
ATOM     12  C07 V6A C1103      19.737  15.332  26.379  0.00  0.00    +0.000 C 
ATOM     13  F01 V6A C1103      19.609  15.226  25.100  0.00  0.00    +0.000 F 
ATOM     14  F02 V6A C1103      19.150  14.310  26.880  0.00  0.00    +0.000 F 
ATOM     15  F03 V6A C1103      20.971  15.197  26.696  0.00  0.00    +0.000 F 
ENDBRANCH   6  12
BRANCH   8  16
ATOM     16  C08 V6A C1103      15.849  18.087  27.446  0.00  0.00    +0.000 C 
ATOM     17  F04 V6A C1103      15.153  17.335  26.658  0.00  0.00    +0.000 F 
ATOM     18  F05 V6A C1103      15.561  19.301  27.100  0.00  0.00    +0.000 F 
ATOM     19  F06 V6A C1103      15.427  17.759  28.632  0.00  0.00    +0.000 F 
ENDBRANCH   8  16
ENDBRANCH   2  10
BRANCH   4  20
ATOM     20  C11 V6A C1103      21.514  22.837  29.711  0.00  0.00    +0.000 C 
BRANCH  20  21
ATOM     21  C12 V6A C1103      22.062  23.830  28.696  0.00  0.00    +0.000 C 
BRANCH  21  22
ATOM     22  C13 V6A C1103      21.701  23.480  27.254  0.00  0.00    +0.000 C 
ATOM     23  N04 V6A C1103      22.735  23.409  26.238  0.00  0.00    +0.000 NA
ATOM     24  O01 V6A C1103      20.580  23.274  26.966  0.00  0.00    +0.000 OA
BRANCH  23  29
ATOM     25  C14 V6A C1103      24.629  25.023  26.475  0.00  0.00    +0.000 C 
ATOM     26  C15 V6A C1103      26.006  25.221  26.402  0.00  0.00    +0.000 C 
ATOM     27  C16 V6A C1103      25.738  27.471  26.268  0.00  0.00    +0.000 C 
ATOM     28  C17 V6A C1103      24.365  27.276  26.336  0.00  0.00    +0.000 C 
ATOM     29  N05 V6A C1103      24.082  23.668  26.592  0.00  0.00    +0.000 NA
ATOM     30  N06 V6A C1103      26.528  26.426  26.304  0.00  0.00    +0.000 NA
ATOM     31  N07 V6A C1103      23.827  26.073  26.439  0.00  0.00    +0.000 NA
ENDBRANCH  23  29
ENDBRANCH  21  22
ENDBRANCH  20  21
ENDBRANCH   4  20
TORSDOF 7
