REMARK  Name = ligand_pdbs\WFM.pdb
REMARK  3 active torsions:
REMARK  status: ('A' for Active; 'I' for Inactive)
REMARK    1  A    between atoms: C4_3  and  O1_19
REMARK    2  A    between atoms: O1_19  and  C3_20
REMARK    3  A    between atoms: C14_24  and  N2_28
REMARK                            x       y       z     vdW  Elec       q    Type
REMARK                         _______ _______ _______ _____ _____    ______ ____
ROOT
ATOM      1  C13 WFM A 701      19.014 -38.752  -4.954  0.00  0.00    +0.000 C 
ATOM      2  C21 WFM A 701      17.586 -39.259  -3.058  0.00  0.00    +0.000 C 
ATOM      3  C3  WFM A 701      18.959 -39.742  -6.120  0.00  0.00    +0.000 C 
ATOM      4  C2  WFM A 701      18.835 -41.113  -5.464  0.00  0.00    +0.000 C 
ATOM      5  C1  WFM A 701      19.343 -40.922  -4.028  0.00  0.00    +0.000 C 
ATOM      6  O2  WFM A 701      17.878 -37.869  -4.936  0.00  0.00    +0.000 OA
ATOM      7  C14 WFM A 701      17.282 -37.878  -3.646  0.00  0.00    +0.000 C 
ATOM      8  O3  WFM A 701      17.505 -39.307  -1.639  0.00  0.00    +0.000 OA
ATOM      9  C   WFM A 701      19.002 -39.489  -3.615  0.00  0.00    +0.000 C 
ATOM     10  O   WFM A 701      20.067 -39.040  -2.769  0.00  0.00    +0.000 OA
ENDROOT
BRANCH   7  15
ATOM     11  N3  WFM A 701      15.707 -35.439  -2.673  0.00  0.00    +0.000 NA
ATOM     12  C15 WFM A 701      15.186 -36.459  -3.377  0.00  0.00    +0.000 C 
ATOM     13  C17 WFM A 701      12.993 -35.513  -3.409  0.00  0.00    +0.000 C 
ATOM     14  C20 WFM A 701      14.956 -38.378  -4.501  0.00  0.00    +0.000 C 
ATOM     15  N2  WFM A 701      15.860 -37.577  -3.812  0.00  0.00    +0.000 N 
ATOM     16  C19 WFM A 701      13.725 -37.820  -4.481  0.00  0.00    +0.000 C 
ATOM     17  C18 WFM A 701      13.836 -36.597  -3.742  0.00  0.00    +0.000 C 
ATOM     18  N5  WFM A 701      11.700 -35.477  -3.747  0.00  0.00    +0.000 NA
ATOM     19  N4  WFM A 701      13.509 -34.464  -2.728  0.00  0.00    +0.000 NA
ATOM     20  C16 WFM A 701      14.808 -34.486  -2.415  0.00  0.00    +0.000 C 
ENDBRANCH   7  15
BRANCH   3  21
ATOM     21  O1  WFM A 701      20.179 -39.628  -6.901  0.00  0.00    +0.000 OA
BRANCH  21  23
ATOM     22  N1  WFM A 701      19.563 -43.564  -9.652  0.00  0.00    +0.000 NA
ATOM     23  C4  WFM A 701      20.623 -40.691  -7.661  0.00  0.00    +0.000 C 
ATOM     24  C5  WFM A 701      22.009 -40.725  -7.816  0.00  0.00    +0.000 C 
ATOM     25  C6  WFM A 701      22.582 -41.657  -8.628  0.00  0.00    +0.000 C 
ATOM     26  C7  WFM A 701      21.799 -42.681  -9.217  0.00  0.00    +0.000 C 
ATOM     27  C8  WFM A 701      22.345 -43.750  -9.943  0.00  0.00    +0.000 C 
ATOM     28  C10 WFM A 701      20.121 -44.619 -10.309  0.00  0.00    +0.000 C 
ATOM     29 BR   WFM A 701      22.307 -46.173 -11.382  0.00  0.00    +0.000 Br
ATOM     30  C9  WFM A 701      21.530 -44.695 -10.480  0.00  0.00    +0.000 C 
ATOM     31  N   WFM A 701      19.281 -45.537 -10.799  0.00  0.00    +0.000 NA
ATOM     32  C11 WFM A 701      20.392 -42.645  -9.054  0.00  0.00    +0.000 C 
ATOM     33  C12 WFM A 701      19.808 -41.613  -8.285  0.00  0.00    +0.000 C 
ENDBRANCH  21  23
ENDBRANCH   3  21
TORSDOF 3
