REMARK  Name = ligand_pdbs\WFS.pdb
REMARK  3 active torsions:
REMARK  status: ('A' for Active; 'I' for Inactive)
REMARK    1  A    between atoms: C4_3  and  O_20
REMARK    2  A    between atoms: C5_4  and  O_20
REMARK    3  A    between atoms: C14_24  and  N2_29
REMARK                            x       y       z     vdW  Elec       q    Type
REMARK                         _______ _______ _______ _____ _____    ______ ____
ROOT
ATOM      1  C4  WFS A 706      18.929 -39.650  -6.041  0.00  0.00    +0.000 C 
ATOM      2  C15 WFS A 706      17.470 -39.235  -2.985  0.00  0.00    +0.000 C 
ATOM      3  C   WFS A 706      18.661 -40.998  -5.388  0.00  0.00    +0.000 C 
ATOM      4  C3  WFS A 706      18.879 -38.666  -4.873  0.00  0.00    +0.000 C 
ATOM      5  O1  WFS A 706      17.650 -37.922  -4.920  0.00  0.00    +0.000 OA
ATOM      6  C14 WFS A 706      17.134 -37.877  -3.601  0.00  0.00    +0.000 C 
ATOM      7  O2  WFS A 706      17.400 -39.256  -1.566  0.00  0.00    +0.000 OA
ATOM      8  C2  WFS A 706      18.889 -39.434  -3.539  0.00  0.00    +0.000 C 
ATOM      9  O3  WFS A 706      19.923 -39.014  -2.649  0.00  0.00    +0.000 OA
ATOM     10  C1  WFS A 706      19.256 -40.852  -3.985  0.00  0.00    +0.000 C 
ENDROOT
BRANCH   6  16
ATOM     11  N3  WFS A 706      13.488 -34.365  -2.583  0.00  0.00    +0.000 NA
ATOM     12  C17 WFS A 706      13.735 -36.501  -3.610  0.00  0.00    +0.000 C 
ATOM     13  C20 WFS A 706      12.939 -35.400  -3.240  0.00  0.00    +0.000 C 
ATOM     14  C21 WFS A 706      14.788 -34.446  -2.275  0.00  0.00    +0.000 C 
ATOM     15  C22 WFS A 706      11.474 -35.314  -3.547  0.00  0.00    +0.000 C 
ATOM     16  N2  WFS A 706      15.710 -37.573  -3.685  0.00  0.00    +0.000 N 
ATOM     17  C19 WFS A 706      14.763 -38.348  -4.344  0.00  0.00    +0.000 C 
ATOM     18  C18 WFS A 706      13.560 -37.734  -4.323  0.00  0.00    +0.000 C 
ATOM     19  N4  WFS A 706      15.650 -35.436  -2.536  0.00  0.00    +0.000 NA
ATOM     20  C16 WFS A 706      15.081 -36.438  -3.225  0.00  0.00    +0.000 C 
ENDBRANCH   6  16
BRANCH   1  21
ATOM     21  O   WFS A 706      20.272 -39.615  -6.582  0.00  0.00    +0.000 OA
BRANCH  21  23
ATOM     22  N1  WFS A 706      19.148 -45.295 -10.701  0.00  0.00    +0.000 NA
ATOM     23  C5  WFS A 706      20.680 -40.579  -7.480  0.00  0.00    +0.000 C 
ATOM     24  C6  WFS A 706      22.054 -40.628  -7.688  0.00  0.00    +0.000 C 
ATOM     25  C7  WFS A 706      22.581 -41.522  -8.571  0.00  0.00    +0.000 C 
ATOM     26  C8  WFS A 706      21.750 -42.443  -9.250  0.00  0.00    +0.000 C 
ATOM     27  C10 WFS A 706      19.823 -41.430  -8.144  0.00  0.00    +0.000 C 
ATOM     28  C13 WFS A 706      22.250 -43.513 -10.007  0.00  0.00    +0.000 C 
ATOM     29 BR   WFS A 706      22.153 -45.992 -11.341  0.00  0.00    +0.000 Br
ATOM     30  C12 WFS A 706      21.407 -44.474 -10.472  0.00  0.00    +0.000 C 
ATOM     31  C11 WFS A 706      20.003 -44.363 -10.259  0.00  0.00    +0.000 C 
ATOM     32  N   WFS A 706      19.499 -43.320  -9.574  0.00  0.00    +0.000 NA
ATOM     33  C9  WFS A 706      20.355 -42.391  -9.036  0.00  0.00    +0.000 C 
ENDBRANCH  21  23
ENDBRANCH   1  21
TORSDOF 3
