REMARK  Name = ligand_pdbs\WFV.pdb
REMARK  3 active torsions:
REMARK  status: ('A' for Active; 'I' for Inactive)
REMARK    1  A    between atoms: C13_9  and  C14_23
REMARK    2  A    between atoms: C15_10  and  C14_23
REMARK    3  A    between atoms: C3_29  and  N_32
REMARK                            x       y       z     vdW  Elec       q    Type
REMARK                         _______ _______ _______ _____ _____    ______ ____
ROOT
ATOM      1  C4  WFV A 705      18.053 -38.292  -4.862  0.00  0.00    +0.000 C 
ATOM      2  C13 WFV A 705      19.993 -40.217  -5.472  0.00  0.00    +0.000 C 
ATOM      3  C12 WFV A 705      19.452 -41.515  -4.907  0.00  0.00    +0.000 C 
ATOM      4  C11 WFV A 705      19.403 -41.278  -3.409  0.00  0.00    +0.000 C 
ATOM      5  C1  WFV A 705      19.034 -39.797  -3.215  0.00  0.00    +0.000 C 
ATOM      6  O1  WFV A 705      19.911 -39.272  -2.215  0.00  0.00    +0.000 OA
ATOM      7  C   WFV A 705      19.350 -39.120  -4.591  0.00  0.00    +0.000 C 
ATOM      8  C3  WFV A 705      17.324 -38.143  -3.535  0.00  0.00    +0.000 C 
ATOM      9  C2  WFV A 705      17.555 -39.507  -2.898  0.00  0.00    +0.000 C 
ATOM     10  O   WFV A 705      17.218 -39.520  -1.517  0.00  0.00    +0.000 OA
ENDROOT
BRANCH   8  18
ATOM     11  N1  WFV A 705      13.655 -34.616  -2.622  0.00  0.00    +0.000 NA
ATOM     12  N3  WFV A 705      11.805 -35.574  -3.619  0.00  0.00    +0.000 NA
ATOM     13  C5  WFV A 705      15.284 -36.652  -3.258  0.00  0.00    +0.000 C 
ATOM     14  C6  WFV A 705      13.934 -36.752  -3.652  0.00  0.00    +0.000 C 
ATOM     15  C7  WFV A 705      13.753 -37.971  -4.324  0.00  0.00    +0.000 C 
ATOM     16  C8  WFV A 705      14.959 -38.585  -4.323  0.00  0.00    +0.000 C 
ATOM     17  C10 WFV A 705      14.960 -34.665  -2.318  0.00  0.00    +0.000 C 
ATOM     18  N   WFV A 705      15.901 -37.804  -3.689  0.00  0.00    +0.000 N 
ATOM     19  F   WFV A 705      12.625 -38.439  -4.890  0.00  0.00    +0.000 F 
ATOM     20  N2  WFV A 705      15.848 -35.631  -2.590  0.00  0.00    +0.000 NA
ATOM     21  C9  WFV A 705      13.102 -35.654  -3.299  0.00  0.00    +0.000 C 
ENDBRANCH   8  18
BRANCH   2  22
ATOM     22  C14 WFV A 705      19.771 -40.058  -6.987  0.00  0.00    +0.000 C 
BRANCH  22  23
ATOM     23  C15 WFV A 705      20.463 -41.107  -7.827  0.00  0.00    +0.000 C 
ATOM     24  C17 WFV A 705      22.441 -41.872  -8.944  0.00  0.00    +0.000 C 
ATOM     25  C20 WFV A 705      19.747 -42.134  -8.420  0.00  0.00    +0.000 C 
ATOM     26  C21 WFV A 705      20.262 -45.094 -10.437  0.00  0.00    +0.000 C 
ATOM     27  C22 WFV A 705      21.661 -45.022 -10.697  0.00  0.00    +0.000 C 
ATOM     28  F2  WFV A 705      23.797 -41.857  -9.055  0.00  0.00    +0.000 F 
ATOM     29  C16 WFV A 705      21.858 -41.079  -7.986  0.00  0.00    +0.000 C 
ATOM     30  C18 WFV A 705      21.768 -42.996  -9.467  0.00  0.00    +0.000 C 
ATOM     31  C23 WFV A 705      22.408 -43.996 -10.235  0.00  0.00    +0.000 C 
ATOM     32  F1  WFV A 705      22.239 -46.016 -11.410  0.00  0.00    +0.000 F 
ATOM     33  N5  WFV A 705      19.535 -46.112 -10.910  0.00  0.00    +0.000 NA
ATOM     34  N4  WFV A 705      19.639 -44.143  -9.711  0.00  0.00    +0.000 NA
ATOM     35  C19 WFV A 705      20.386 -43.107  -9.223  0.00  0.00    +0.000 C 
ENDBRANCH  22  23
ENDBRANCH   2  22
TORSDOF 3
