REMARK  Name = ligand_pdbs\YFU.pdb
REMARK  6 active torsions:
REMARK  status: ('A' for Active; 'I' for Inactive)
REMARK    1  A    between atoms: O1_4  and  C5_14
REMARK    2  A    between atoms: N2_6  and  C16_25
REMARK    3  A    between atoms: N4_12  and  C29_37
REMARK    4  A    between atoms: C10_19  and  C11_20
REMARK    5  A    between atoms: C16_25  and  C17_26
REMARK    6  A    between atoms: C17_26  and  C18_27
REMARK                            x       y       z     vdW  Elec       q    Type
REMARK                         _______ _______ _______ _____ _____    ______ ____
ROOT
ATOM      1  N2  YFU A 703     137.958 167.388 125.946  0.00  0.00    +0.000 N 
ATOM      2  O3  YFU A 703     135.925 166.858 125.511  0.00  0.00    +0.000 OA
ATOM      3  N4  YFU A 703     139.003 164.964 125.944  0.00  0.00    +0.000 N 
ATOM      4  C11 YFU A 703     137.850 164.379 122.106  0.00  0.00    +0.000 A 
ATOM      5  C12 YFU A 703     136.785 165.454 121.996  0.00  0.00    +0.000 A 
ATOM      6  C13 YFU A 703     136.538 166.231 123.036  0.00  0.00    +0.000 A 
ATOM      7  C14 YFU A 703     137.289 166.035 124.338  0.00  0.00    +0.000 A 
ATOM      8  C15 YFU A 703     137.051 166.731 125.272  0.00  0.00    +0.000 C 
ATOM      9  C27 YFU A 703     139.023 167.377 125.872  0.00  0.00    +0.000 C 
ATOM     10  C28 YFU A 703     139.494 166.368 126.751  0.00  0.00    +0.000 C 
ATOM     11  C31 YFU A 703     138.172 165.101 124.420  0.00  0.00    +0.000 A 
ATOM     12  C32 YFU A 703     138.492 164.202 123.237  0.00  0.00    +0.000 A 
ENDROOT
BRANCH   4  23
ATOM     13  C1  YFU A 703     138.482 165.427 119.280  0.00  0.00    +0.000 C 
ATOM     14  N1  YFU A 703     138.442 164.015 119.595  0.00  0.00    +0.000 N 
ATOM     15  C2  YFU A 703     137.444 165.693 118.195  0.00  0.00    +0.000 C 
ATOM     16  O2  YFU A 703     138.142 162.337 121.058  0.00  0.00    +0.000 OA
ATOM     17  C3  YFU A 703     137.581 164.676 117.087  0.00  0.00    +0.000 C 
ATOM     18  C4  YFU A 703     137.120 165.002 115.486  0.00  0.00    +0.000 C 
ATOM     19  C5  YFU A 703     138.468 165.403 115.297  0.00  0.00    +0.000 C 
ATOM     20  C7  YFU A 703     139.127 165.025 116.492  0.00  0.00    +0.000 C 
ATOM     21  C8  YFU A 703     137.486 163.277 117.659  0.00  0.00    +0.000 C 
ATOM     22  C9  YFU A 703     138.689 163.049 118.576  0.00  0.00    +0.000 C 
ATOM     23  C10 YFU A 703     138.151 163.484 120.911  0.00  0.00    +0.000 C 
BRANCH  19  24
ATOM     24  O1  YFU A 703     139.085 164.713 114.141  0.00  0.00    +0.000 OA
ATOM     25  C6  YFU A 703     139.501 165.656 113.189  0.00  0.00    +0.000 C 
ENDBRANCH  19  24
ENDBRANCH   4  23
BRANCH   3  26
ATOM     26  C29 YFU A 703     139.336 163.684 126.508  0.00  0.00    +0.000 C 
ATOM     27  C30 YFU A 703     140.691 163.998 127.137  0.00  0.00    +0.000 C 
ENDBRANCH   3  26
BRANCH   1  28
ATOM     28  C16 YFU A 703     137.496 168.226 127.071  0.00  0.00    +0.000 C 
BRANCH  28  30
ATOM     29  O4  YFU A 703     136.998 170.344 127.776  0.00  0.00    +0.000 OA
ATOM     30  C17 YFU A 703     137.442 169.760 126.884  0.00  0.00    +0.000 C 
BRANCH  30  33
ATOM     31  C22 YFU A 703     140.911 173.745 123.169  0.00  0.00    +0.000 A 
ATOM     32  N3  YFU A 703     137.036 171.659 125.507  0.00  0.00    +0.000 NA
ATOM     33  C18 YFU A 703     137.947 170.575 125.802  0.00  0.00    +0.000 C 
ATOM     34  C19 YFU A 703     137.686 172.454 124.568  0.00  0.00    +0.000 C 
ATOM     35  C20 YFU A 703     139.065 172.681 124.419  0.00  0.00    +0.000 A 
ATOM     36  C21 YFU A 703     139.641 173.548 123.275  0.00  0.00    +0.000 A 
ATOM     37  C23 YFU A 703     141.815 173.123 124.146  0.00  0.00    +0.000 A 
ATOM     38  C24 YFU A 703     141.345 172.397 125.100  0.00  0.00    +0.000 A 
ATOM     39  C25 YFU A 703     139.825 172.172 125.229  0.00  0.00    +0.000 A 
ATOM     40  C26 YFU A 703     139.236 171.296 126.356  0.00  0.00    +0.000 C 
ENDBRANCH  30  33
ENDBRANCH  28  30
ENDBRANCH   1  28
TORSDOF 6
