REMARK  Name = ligand_pdbs\YJG.pdb
REMARK  9 active torsions:
REMARK  status: ('A' for Active; 'I' for Inactive)
REMARK    1  A    between atoms: C01_5  and  C02_6
REMARK    2  A    between atoms: C05_9  and  N06_21
REMARK    3  A    between atoms: C07_10  and  C09_11
REMARK    4  A    between atoms: C09_11  and  N10_22
REMARK    5  A    between atoms: C19_15  and  S20_30
REMARK    6  A    between atoms: C23_16  and  C25_17
REMARK    7  A    between atoms: C23_16  and  N23_24
REMARK    8  A    between atoms: C25_17  and  C26_18
REMARK    9  A    between atoms: N23_24  and  S20_30
REMARK                            x       y       z     vdW  Elec       q    Type
REMARK                         _______ _______ _______ _____ _____    ______ ____
ROOT
ATOM      1  C01 YJG A 701     124.005 177.454 138.100  0.00  0.00    +0.000 C 
ATOM      2  C02 YJG A 701     123.142 178.076 139.154  0.00  0.00    +0.000 A 
ATOM      3  C03 YJG A 701     123.787 178.731 140.206  0.00  0.00    +0.000 A 
ATOM      4  C04 YJG A 701     123.082 179.343 141.237  0.00  0.00    +0.000 A 
ATOM      5  C05 YJG A 701     121.694 179.318 141.249  0.00  0.00    +0.000 A 
ATOM      6  C18 YJG A 701     121.033 178.668 140.203  0.00  0.00    +0.000 A 
ATOM      7  C19 YJG A 701     121.745 178.054 139.167  0.00  0.00    +0.000 A 
ENDROOT
BRANCH   5   9
ATOM      8  C07 YJG A 701     121.355 180.598 143.367  0.00  0.00    +0.000 C 
ATOM      9  N06 YJG A 701     120.894 179.910 142.252  0.00  0.00    +0.000 N 
ATOM     10  O08 YJG A 701     122.521 180.807 143.667  0.00  0.00    +0.000 OA
ATOM     11  H06 YJG A 701     119.973 179.495 142.335  0.00  0.00    +0.000 HD
BRANCH   8  12
ATOM     12  C09 YJG A 701     120.238 181.116 144.254  0.00  0.00    +0.000 C 
BRANCH  12  17
ATOM     13  C14 YJG A 701     121.033 184.786 144.721  0.00  0.00    +0.000 A 
ATOM     14  C16 YJG A 701     120.445 183.580 144.101  0.00  0.00    +0.000 A 
ATOM     15  C12 YJG A 701     121.973 183.366 146.380  0.00  0.00    +0.000 A 
ATOM     16  C13 YJG A 701     121.787 184.698 145.812  0.00  0.00    +0.000 A 
ATOM     17  N10 YJG A 701     120.715 182.387 144.758  0.00  0.00    +0.000 N 
ATOM     18  N11 YJG A 701     121.490 182.285 145.881  0.00  0.00    +0.000 NA
ATOM     19  O17 YJG A 701     119.764 183.675 143.083  0.00  0.00    +0.000 OA
ATOM     20 CL1  YJG A 701     120.730 186.303 143.975  0.00  0.00    +0.000 Cl
ENDBRANCH  12  17
ENDBRANCH   8  12
ENDBRANCH   5   9
BRANCH   7  23
ATOM     21  O21 YJG A 701     121.322 177.739 136.614  0.00  0.00    +0.000 OA
ATOM     22  O22 YJG A 701     119.416 177.363 138.194  0.00  0.00    +0.000 OA
ATOM     23  S20 YJG A 701     120.823 177.252 137.881  0.00  0.00    +0.000 S 
BRANCH  23  24
ATOM     24  N23 YJG A 701     121.320 175.649 138.100  0.00  0.00    +0.000 NA
ATOM     25  H23 YJG A 701     121.790 175.138 137.346  0.00  0.00    +0.000 HD
BRANCH  24  26
ATOM     26  C23 YJG A 701     121.047 174.945 139.364  0.00  0.00    +0.000 C 
BRANCH  26  27
ATOM     27  C25 YJG A 701     122.315 174.695 140.167  0.00  0.00    +0.000 C 
BRANCH  27  30
ATOM     28  C28 YJG A 701     122.496 176.024 143.693  0.00  0.00    +0.000 C 
ATOM     29  C27 YJG A 701     122.799 175.844 142.349  0.00  0.00    +0.000 C 
ATOM     30  C26 YJG A 701     122.047 174.931 141.623  0.00  0.00    +0.000 C 
ATOM     31  C29 YJG A 701     121.462 175.303 144.274  0.00  0.00    +0.000 C 
ATOM     32  C30 YJG A 701     120.764 174.422 143.471  0.00  0.00    +0.000 C 
ATOM     33  N31 YJG A 701     121.028 174.219 142.163  0.00  0.00    +0.000 NA
ENDBRANCH  27  30
ENDBRANCH  26  27
ENDBRANCH  24  26
ENDBRANCH  23  24
ENDBRANCH   7  23
TORSDOF 8
