REMARK  Name = ligand_pdbs\YLO.pdb
REMARK  9 active torsions:
REMARK  status: ('A' for Active; 'I' for Inactive)
REMARK    1  A    between atoms: C05_5  and  O08_8
REMARK    2  A    between atoms: O08_8  and  C09_9
REMARK    3  A    between atoms: C09_9  and  C10_10
REMARK    4  A    between atoms: C10_10  and  N11_11
REMARK    5  A    between atoms: C19_19  and  S20_20
REMARK    6  A    between atoms: S20_20  and  C21_21
REMARK    7  A    between atoms: C21_21  and  C22_22
REMARK    8  A    between atoms: C22_22  and  O23_23
REMARK    9  A    between atoms: O23_23  and  C24_24
REMARK                            x       y       z     vdW  Elec       q    Type
REMARK                         _______ _______ _______ _____ _____    ______ ____
ROOT
ATOM      1  N11 YLO A1922     -18.755  16.024 -30.594  0.00  0.00    +0.000 N 
ATOM      2  C12 YLO A1922     -18.002  16.100 -29.437  0.00  0.00    +0.000 C 
ATOM      3  C13 YLO A1922     -17.753  17.106 -28.519  0.00  0.00    +0.000 C 
ATOM      4  C14 YLO A1922     -16.952  16.933 -27.431  0.00  0.00    +0.000 C 
ATOM      5  C15 YLO A1922     -16.365  15.718 -27.216  0.00  0.00    +0.000 C 
ATOM      6  C16 YLO A1922     -16.601  14.716 -28.131  0.00  0.00    +0.000 C 
ATOM      7  C17 YLO A1922     -17.423  14.903 -29.250  0.00  0.00    +0.000 C 
ATOM      8  N18 YLO A1922     -17.803  14.075 -30.294  0.00  0.00    +0.000 NA
ATOM      9  C19 YLO A1922     -18.606  14.775 -31.092  0.00  0.00    +0.000 C 
ENDROOT
BRANCH   1  10
ATOM     10  C10 YLO A1922     -19.504  17.147 -31.180  0.00  0.00    +0.000 C 
BRANCH  10  11
ATOM     11  C09 YLO A1922     -20.883  17.132 -31.745  0.00  0.00    +0.000 C 
BRANCH  11  12
ATOM     12  O08 YLO A1922     -21.464  18.389 -31.708  0.00  0.00    +0.000 OA
BRANCH  12  17
ATOM     13  C01 YLO A1922     -25.482  19.661 -27.748  0.00  0.00    +0.000 C 
ATOM     14  C02 YLO A1922     -24.400  19.300 -28.764  0.00  0.00    +0.000 A 
ATOM     15  C03 YLO A1922     -23.966  20.213 -29.731  0.00  0.00    +0.000 A 
ATOM     16  C04 YLO A1922     -22.997  19.935 -30.688  0.00  0.00    +0.000 A 
ATOM     17  C05 YLO A1922     -22.431  18.686 -30.734  0.00  0.00    +0.000 A 
ATOM     18  C06 YLO A1922     -22.860  17.759 -29.761  0.00  0.00    +0.000 A 
ATOM     19  C07 YLO A1922     -23.826  18.044 -28.787  0.00  0.00    +0.000 A 
ENDBRANCH  12  17
ENDBRANCH  11  12
ENDBRANCH  10  11
ENDBRANCH   1  10
BRANCH   9  20
ATOM     20  S20 YLO A1922     -19.273  14.118 -32.506  0.00  0.00    +0.000 S 
BRANCH  20  21
ATOM     21  C21 YLO A1922     -20.416  12.788 -32.287  0.00  0.00    +0.000 C 
BRANCH  21  22
ATOM     22  C22 YLO A1922     -20.347  11.800 -33.446  0.00  0.00    +0.000 C 
BRANCH  22  23
ATOM     23  O23 YLO A1922     -21.476  11.632 -34.244  0.00  0.00    +0.000 OA
BRANCH  23  24
ATOM     24  C24 YLO A1922     -21.726  12.466 -35.313  0.00  0.00    +0.000 A 
ATOM     25  C25 YLO A1922     -20.852  12.570 -36.366  0.00  0.00    +0.000 A 
ATOM     26  C26 YLO A1922     -21.124  13.400 -37.442  0.00  0.00    +0.000 A 
ATOM     27  C27 YLO A1922     -22.297  14.124 -37.463  0.00  0.00    +0.000 A 
ATOM     28  C28 YLO A1922     -23.170  14.025 -36.416  0.00  0.00    +0.000 A 
ATOM     29  C29 YLO A1922     -22.899  13.192 -35.354  0.00  0.00    +0.000 A 
ENDBRANCH  23  24
ENDBRANCH  22  23
ENDBRANCH  21  22
ENDBRANCH  20  21
ENDBRANCH   9  20
TORSDOF 9
