REMARK  Name = ligand_pdbs\YLQ.pdb
REMARK  8 active torsions:
REMARK  status: ('A' for Active; 'I' for Inactive)
REMARK    1  A    between atoms: C05_5  and  O06_6
REMARK    2  A    between atoms: O06_6  and  C07_7
REMARK    3  A    between atoms: C07_7  and  C08_8
REMARK    4  A    between atoms: C08_8  and  N09_9
REMARK    5  A    between atoms: C10_10  and  S11_11
REMARK    6  A    between atoms: S11_11  and  C12_12
REMARK    7  A    between atoms: C12_12  and  C13_13
REMARK    8  A    between atoms: C13_13  and  C14_14
REMARK                            x       y       z     vdW  Elec       q    Type
REMARK                         _______ _______ _______ _____ _____    ______ ____
ROOT
ATOM      1  N09 YLQ A1922      17.723 -16.684 -30.954  0.00  0.00    +0.000 N 
ATOM      2  C10 YLQ A1922      18.697 -15.768 -30.700  0.00  0.00    +0.000 C 
ATOM      3  N17 YLQ A1922      18.644 -15.335 -29.434  0.00  0.00    +0.000 NA
ATOM      4  C18 YLQ A1922      17.602 -15.989 -28.836  0.00  0.00    +0.000 C 
ATOM      5  C19 YLQ A1922      17.102 -15.921 -27.521  0.00  0.00    +0.000 C 
ATOM      6  C20 YLQ A1922      16.020 -16.720 -27.212  0.00  0.00    +0.000 C 
ATOM      7  C21 YLQ A1922      15.447 -17.573 -28.137  0.00  0.00    +0.000 C 
ATOM      8  C22 YLQ A1922      15.941 -17.651 -29.452  0.00  0.00    +0.000 C 
ATOM      9  C23 YLQ A1922      17.026 -16.836 -29.778  0.00  0.00    +0.000 C 
ENDROOT
BRANCH   1  10
ATOM     10  C08 YLQ A1922      17.486 -17.399 -32.243  0.00  0.00    +0.000 C 
BRANCH  10  11
ATOM     11  C07 YLQ A1922      16.126 -17.827 -32.648  0.00  0.00    +0.000 C 
BRANCH  11  12
ATOM     12  O06 YLQ A1922      15.608 -17.214 -33.780  0.00  0.00    +0.000 OA
BRANCH  12  17
ATOM     13  C01 YLQ A1922      11.598 -13.189 -33.529  0.00  0.00    +0.000 C 
ATOM     14  C02 YLQ A1922      12.637 -14.255 -33.574  0.00  0.00    +0.000 A 
ATOM     15  C03 YLQ A1922      12.460 -15.418 -32.883  0.00  0.00    +0.000 A 
ATOM     16  C04 YLQ A1922      13.470 -16.447 -32.952  0.00  0.00    +0.000 A 
ATOM     17  C05 YLQ A1922      14.646 -16.253 -33.715  0.00  0.00    +0.000 A 
ATOM     18  C24 YLQ A1922      14.818 -15.055 -34.421  0.00  0.00    +0.000 A 
ATOM     19  C25 YLQ A1922      13.835 -14.066 -34.357  0.00  0.00    +0.000 A 
ENDBRANCH  12  17
ENDBRANCH  11  12
ENDBRANCH  10  11
ENDBRANCH   1  10
BRANCH   2  20
ATOM     20  S11 YLQ A1922      19.834 -15.187 -31.881  0.00  0.00    +0.000 S 
BRANCH  20  21
ATOM     21  C12 YLQ A1922      19.650 -13.383 -31.753  0.00  0.00    +0.000 C 
BRANCH  21  22
ATOM     22  C13 YLQ A1922      20.136 -12.477 -32.813  0.00  0.00    +0.000 C 
BRANCH  22  23
ATOM     23  C14 YLQ A1922      21.584 -12.150 -32.929  0.00  0.00    +0.000 C 
ATOM     24  O15 YLQ A1922      22.426 -12.708 -32.207  0.00  0.00    +0.000 OA
ATOM     25  O16 YLQ A1922      21.949 -11.293 -33.803  0.00  0.00    +0.000 OA
ENDBRANCH  22  23
ENDBRANCH  21  22
ENDBRANCH  20  21
ENDBRANCH   2  20
TORSDOF 8
