REMARK  Name = ligand_pdbs\ZLK.pdb
REMARK  9 active torsions:
REMARK  status: ('A' for Active; 'I' for Inactive)
REMARK    1  A    between atoms: C03_3  and  O02_35
REMARK    2  A    between atoms: C04_4  and  C05_5
REMARK    3  A    between atoms: C05_5  and  C06_6
REMARK    4  A    between atoms: C13_11  and  N14_33
REMARK    5  A    between atoms: C15_12  and  O17_37
REMARK    6  A    between atoms: C18_13  and  O17_37
REMARK    7  A    between atoms: C27_22  and  C29_24
REMARK    8  A    between atoms: C35_25  and  S32_41
REMARK    9  A    between atoms: N31_34  and  S32_41
REMARK                            x       y       z     vdW  Elec       q    Type
REMARK                         _______ _______ _______ _____ _____    ______ ____
ROOT
ATOM      1  C03 ZLK C1116      21.233  11.706 -28.253  0.00  0.00    +0.000 A 
ATOM      2  C04 ZLK C1116      22.457  12.197 -28.775  0.00  0.00    +0.000 A 
ATOM      3  C25 ZLK C1116      22.669  13.586 -28.862  0.00  0.00    +0.000 A 
ATOM      4  C26 ZLK C1116      21.695  14.499 -28.416  0.00  0.00    +0.000 A 
ATOM      5  C27 ZLK C1116      20.479  14.044 -27.885  0.00  0.00    +0.000 A 
ATOM      6  C28 ZLK C1116      20.257  12.661 -27.811  0.00  0.00    +0.000 A 
ENDROOT
BRANCH   5   7
ATOM      7  C29 ZLK C1116      19.433  15.074 -27.385  0.00  0.00    +0.000 C 
ATOM      8  N31 ZLK C1116      19.763  16.469 -27.563  0.00  0.00    +0.000 NA
ATOM      9  O30 ZLK C1116      18.408  14.750 -26.854  0.00  0.00    +0.000 OA
BRANCH   8  12
ATOM     10  O33 ZLK C1116      18.285  17.726 -25.737  0.00  0.00    +0.000 OA
ATOM     11  O34 ZLK C1116      17.596  17.971 -27.866  0.00  0.00    +0.000 OA
ATOM     12  S32 ZLK C1116      18.854  17.874 -27.120  0.00  0.00    +0.000 S 
BRANCH  12  13
ATOM     13  C35 ZLK C1116      20.024  19.315 -27.323  0.00  0.00    +0.000 A 
ATOM     14  C36 ZLK C1116      19.512  20.595 -27.695  0.00  0.00    +0.000 A 
ATOM     15  C37 ZLK C1116      20.333  21.715 -27.860  0.00  0.00    +0.000 A 
ATOM     16  C38 ZLK C1116      21.718  21.627 -27.685  0.00  0.00    +0.000 A 
ATOM     17  C39 ZLK C1116      22.265  20.377 -27.330  0.00  0.00    +0.000 A 
ATOM     18  C40 ZLK C1116      21.463  19.243 -27.148  0.00  0.00    +0.000 A 
ATOM     19  C41 ZLK C1116      22.253  17.932 -26.742  0.00  0.00    +0.000 C 
ENDBRANCH  12  13
ENDBRANCH   8  12
ENDBRANCH   5   7
BRANCH   1  21
ATOM     20  C01 ZLK C1116      19.998   9.867 -27.251  0.00  0.00    +0.000 C 
ATOM     21  O02 ZLK C1116      20.968  10.304 -28.169  0.00  0.00    +0.000 OA
ENDBRANCH   1  21
BRANCH   2  22
ATOM     22  C05 ZLK C1116      23.649  11.302 -29.359  0.00  0.00    +0.000 C 
BRANCH  22  24
ATOM     23  C11 ZLK C1116      22.617  11.972 -31.712  0.00  0.00    +0.000 A 
ATOM     24  C06 ZLK C1116      23.749  11.848 -30.823  0.00  0.00    +0.000 A 
ATOM     25  C07 ZLK C1116      24.818  12.349 -31.521  0.00  0.00    +0.000 A 
ATOM     26  C09 ZLK C1116      25.275  13.315 -33.797  0.00  0.00    +0.000 C 
ATOM     27  C10 ZLK C1116      23.068  12.516 -32.877  0.00  0.00    +0.000 A 
ATOM     28  C12 ZLK C1116      21.261  11.649 -31.557  0.00  0.00    +0.000 A 
ATOM     29  C13 ZLK C1116      20.311  11.843 -32.568  0.00  0.00    +0.000 A 
ATOM     30  C23 ZLK C1116      20.770  12.397 -33.773  0.00  0.00    +0.000 A 
ATOM     31  C24 ZLK C1116      22.104  12.727 -33.933  0.00  0.00    +0.000 A 
ATOM     32  N08 ZLK C1116      24.403  12.740 -32.761  0.00  0.00    +0.000 N 
BRANCH  29  34
ATOM     33  C15 ZLK C1116      18.596  10.308 -31.474  0.00  0.00    +0.000 C 
ATOM     34  N14 ZLK C1116      18.899  11.459 -32.330  0.00  0.00    +0.000 NA
ATOM     35  O16 ZLK C1116      19.507   9.591 -31.123  0.00  0.00    +0.000 OA
BRANCH  33  36
ATOM     36  O17 ZLK C1116      17.239  10.004 -31.017  0.00  0.00    +0.000 OA
BRANCH  36  37
ATOM     37  C18 ZLK C1116      16.878   8.711 -30.460  0.00  0.00    +0.000 C 
ATOM     38  C19 ZLK C1116      17.804   8.159 -29.177  0.00  0.00    +0.000 C 
ATOM     39  C20 ZLK C1116      17.454   6.841 -29.013  0.00  0.00    +0.000 C 
ATOM     40  C21 ZLK C1116      17.132   6.332 -30.497  0.00  0.00    +0.000 C 
ATOM     41  C22 ZLK C1116      16.900   7.668 -31.366  0.00  0.00    +0.000 C 
ENDBRANCH  36  37
ENDBRANCH  33  36
ENDBRANCH  29  34
ENDBRANCH  22  24
ENDBRANCH   2  22
TORSDOF 9
