REMARK  Name = ligand_pdbs\ZN.pdb
REMARK  0 active torsions:
REMARK  status: ('A' for Active; 'I' for Inactive)
REMARK                            x       y       z     vdW  Elec       q    Type
REMARK                         _______ _______ _______ _____ _____    ______ ____
ROOT
ATOM      1 ZN   ZN  A 650      -7.698  87.053  51.891  0.00  0.00    +0.000 Zn
ENDROOT
TORSDOF 0
