REMARK  Name = ligand_pdbs\ZR1.pdb
REMARK  4 active torsions:
REMARK  status: ('A' for Active; 'I' for Inactive)
REMARK    1  A    between atoms: C17_8  and  C22_22
REMARK    2  A    between atoms: C13_9  and  O1_29
REMARK    3  A    between atoms: C8_17  and  N3_25
REMARK    4  A    between atoms: C10_18  and  O1_29
REMARK                            x       y       z     vdW  Elec       q    Type
REMARK                         _______ _______ _______ _____ _____    ______ ____
ROOT
ATOM      1  C9  ZR1 A 701     -32.981  31.516  -5.155  0.00  0.00    +0.000 C 
ATOM      2  C8  ZR1 A 701     -33.589  31.702  -3.768  0.00  0.00    +0.000 C 
ATOM      3  C10 ZR1 A 701     -31.687  30.736  -4.914  0.00  0.00    +0.000 C 
ATOM      4  C12 ZR1 A 701     -33.271  30.365  -3.103  0.00  0.00    +0.000 C 
ATOM      5  C11 ZR1 A 701     -31.861  29.981  -3.587  0.00  0.00    +0.000 C 
ATOM      6  O3  ZR1 A 701     -33.355  30.393  -1.680  0.00  0.00    +0.000 OA
ATOM      7  O2  ZR1 A 701     -30.837  30.351  -2.672  0.00  0.00    +0.000 OA
ENDROOT
BRANCH   2  17
ATOM      8  C5  ZR1 A 701     -37.223  31.718  -4.295  0.00  0.00    +0.000 C 
ATOM      9  C6  ZR1 A 701     -35.994  31.150  -4.406  0.00  0.00    +0.000 C 
ATOM     10  C3  ZR1 A 701     -35.951  35.092  -2.420  0.00  0.00    +0.000 C 
ATOM     11  C1  ZR1 A 701     -37.039  32.989  -3.648  0.00  0.00    +0.000 C 
ATOM     12  C4  ZR1 A 701     -37.839  34.059  -3.214  0.00  0.00    +0.000 C 
ATOM     13  C2  ZR1 A 701     -35.667  33.111  -3.384  0.00  0.00    +0.000 C 
ATOM     14  C7  ZR1 A 701     -39.320  34.128  -3.449  0.00  0.00    +0.000 C 
ATOM     15  N2  ZR1 A 701     -37.279  35.110  -2.591  0.00  0.00    +0.000 NA
ATOM     16  N1  ZR1 A 701     -35.075  34.154  -2.786  0.00  0.00    +0.000 NA
ATOM     17  N3  ZR1 A 701     -35.034  31.982  -3.829  0.00  0.00    +0.000 N 
ENDBRANCH   2  17
BRANCH   3  18
ATOM     18  O1  ZR1 A 701     -31.446  29.851  -6.041  0.00  0.00    +0.000 OA
BRANCH  18  23
ATOM     19  C18 ZR1 A 701     -29.020  30.121  -6.055  0.00  0.00    +0.000 A 
ATOM     20  C14 ZR1 A 701     -30.205  28.733  -7.674  0.00  0.00    +0.000 A 
ATOM     21  C15 ZR1 A 701     -28.985  28.407  -8.292  0.00  0.00    +0.000 A 
ATOM     22  C17 ZR1 A 701     -27.792  29.777  -6.618  0.00  0.00    +0.000 A 
ATOM     23  C13 ZR1 A 701     -30.193  29.598  -6.565  0.00  0.00    +0.000 A 
ATOM     24  C16 ZR1 A 701     -27.829  28.906  -7.731  0.00  0.00    +0.000 A 
ATOM     25  C21 ZR1 A 701     -28.947  27.608  -9.583  0.00  0.00    +0.000 C 
ATOM     26  C19 ZR1 A 701     -31.516  28.161  -8.142  0.00  0.00    +0.000 C 
ATOM     27  C20 ZR1 A 701     -30.203  26.797  -9.802  0.00  0.00    +0.000 C 
ATOM     28  N4  ZR1 A 701     -31.419  27.625  -9.581  0.00  0.00    +0.000 NA
ATOM     29  F3  ZR1 A 701     -26.639  28.536  -8.243  0.00  0.00    +0.000 F 
BRANCH  22  30
ATOM     30  C22 ZR1 A 701     -26.483  30.366  -6.070  0.00  0.00    +0.000 C 
ATOM     31  F1  ZR1 A 701     -25.463  29.471  -6.175  0.00  0.00    +0.000 F 
ATOM     32  F2  ZR1 A 701     -26.618  30.593  -4.736  0.00  0.00    +0.000 F 
ENDBRANCH  22  30
ENDBRANCH  18  23
ENDBRANCH   3  18
TORSDOF 4
