REMARK  Name = ligand_pdbs\ZR4.pdb
REMARK  3 active torsions:
REMARK  status: ('A' for Active; 'I' for Inactive)
REMARK    1  A    between atoms: C12_8  and  C11_17
REMARK    2  A    between atoms: C8_15  and  C11_17
REMARK    3  A    between atoms: C7_16  and  N3_20
REMARK                            x       y       z     vdW  Elec       q    Type
REMARK                         _______ _______ _______ _____ _____    ______ ____
ROOT
ATOM      1  C9  ZR4 A 701     -32.257  29.971  -3.615  0.00  0.00    +0.000 C 
ATOM      2  C10 ZR4 A 701     -33.652  30.298  -3.055  0.00  0.00    +0.000 C 
ATOM      3  C8  ZR4 A 701     -32.104  30.883  -4.832  0.00  0.00    +0.000 C 
ATOM      4  C7  ZR4 A 701     -33.903  31.695  -3.619  0.00  0.00    +0.000 C 
ATOM      5  O1  ZR4 A 701     -33.301  31.687  -4.898  0.00  0.00    +0.000 OA
ATOM      6  O3  ZR4 A 701     -31.175  30.187  -2.717  0.00  0.00    +0.000 OA
ATOM      7  O4  ZR4 A 701     -33.700  30.235  -1.630  0.00  0.00    +0.000 OA
ENDROOT
BRANCH   4  16
ATOM      8  C5  ZR4 A 701     -37.452  31.792  -4.471  0.00  0.00    +0.000 C 
ATOM      9  C6  ZR4 A 701     -36.237  31.199  -4.452  0.00  0.00    +0.000 C 
ATOM     10  C3  ZR4 A 701     -36.339  35.081  -2.367  0.00  0.00    +0.000 C 
ATOM     11  C1  ZR4 A 701     -37.311  33.047  -3.792  0.00  0.00    +0.000 C 
ATOM     12  C2  ZR4 A 701     -35.970  33.141  -3.381  0.00  0.00    +0.000 C 
ATOM     13  C4  ZR4 A 701     -38.140  34.135  -3.441  0.00  0.00    +0.000 C 
ATOM     14  N1  ZR4 A 701     -35.438  34.145  -2.674  0.00  0.00    +0.000 NA
ATOM     15  N2  ZR4 A 701     -37.631  35.132  -2.693  0.00  0.00    +0.000 NA
ATOM     16  N3  ZR4 A 701     -35.315  32.009  -3.800  0.00  0.00    +0.000 N 
ATOM     17  N4  ZR4 A 701     -39.360  34.307  -3.960  0.00  0.00    +0.000 NA
ENDBRANCH   4  16
BRANCH   3  18
ATOM     18  C11 ZR4 A 701     -31.837  30.167  -6.154  0.00  0.00    +0.000 C 
ATOM     19  O2  ZR4 A 701     -32.871  29.221  -6.417  0.00  0.00    +0.000 OA
BRANCH  18  23
ATOM     20  C17 ZR4 A 701     -29.309  30.269  -6.217  0.00  0.00    +0.000 A 
ATOM     21  C16 ZR4 A 701     -28.065  29.667  -6.265  0.00  0.00    +0.000 A 
ATOM     22  C13 ZR4 A 701     -30.367  28.119  -6.155  0.00  0.00    +0.000 A 
ATOM     23  C12 ZR4 A 701     -30.471  29.507  -6.169  0.00  0.00    +0.000 A 
ATOM     24  C14 ZR4 A 701     -29.124  27.534  -6.187  0.00  0.00    +0.000 A 
ATOM     25  C15 ZR4 A 701     -27.974  28.289  -6.256  0.00  0.00    +0.000 A 
ATOM     26  F1  ZR4 A 701     -29.020  26.188  -6.082  0.00  0.00    +0.000 F 
ATOM     27 CL1  ZR4 A 701     -26.425  27.508  -6.338  0.00  0.00    +0.000 Cl
ENDBRANCH  18  23
ENDBRANCH   3  18
TORSDOF 3
