MODEL 1
REMARK VINA RESULT:      -8.0      0.000      0.000
REMARK  Name = ligand_pdbs\056.pdb
REMARK  5 active torsions:
REMARK  status: ('A' for Active; 'I' for Inactive)
REMARK    1  A    between atoms: C16_2  and  C12_4
REMARK    2  A    between atoms: C10_6  and  C9_12
REMARK    3  A    between atoms: S8_10  and  C9_12
REMARK    4  A    between atoms: S8_10  and  C7_16
REMARK    5  A    between atoms: C2_15  and  C7_16
REMARK                            x       y       z     vdW  Elec       q    Type
REMARK                         _______ _______ _______ _____ _____    ______ ____
ROOT
ATOM      1  S8  056 A1922      24.598   1.729   3.893  0.00  0.00    +0.000 S 
ENDROOT
BRANCH   1   2
ATOM      2  C9  056 A1922      25.844   2.014   2.667  0.00  0.00    +0.000 C 
BRANCH   2   5
ATOM      3  C12 056 A1922      28.249  -0.730   3.772  0.00  0.00    +0.000 A 
ATOM      4  C11 056 A1922      27.079  -0.137   3.296  0.00  0.00    +0.000 A 
ATOM      5  C10 056 A1922      27.041   1.242   3.161  0.00  0.00    +0.000 A 
ATOM      6  C15 056 A1922      28.139   1.978   3.529  0.00  0.00    +0.000 A 
ATOM      7  C14 056 A1922      29.287   1.378   4.003  0.00  0.00    +0.000 A 
ATOM      8  C13 056 A1922      29.345   0.016   4.135  0.00  0.00    +0.000 A 
BRANCH   3  10
ATOM      9  O17 056 A1922      27.437  -2.762   4.506  0.00  0.00    +0.000 OA
ATOM     10  C16 056 A1922      28.399  -2.195   3.958  0.00  0.00    +0.000 C 
ATOM     11  O18 056 A1922      29.437  -2.792   3.590  0.00  0.00    +0.000 OA
ENDBRANCH   3  10
ENDBRANCH   2   5
ENDBRANCH   1   2
BRANCH   1  12
ATOM     12  C7  056 A1922      24.943   2.611   5.376  0.00  0.00    +0.000 C 
BRANCH  12  16
ATOM     13  C6  056 A1922      26.734   6.090   5.341  0.00  0.00    +0.000 A 
ATOM     14  C1  056 A1922      26.567   4.726   5.586  0.00  0.00    +0.000 A 
ATOM     15 CL1  056 A1922      27.936   3.837   6.365  0.00  0.00    +0.000 Cl
ATOM     16  C2  056 A1922      25.276   4.076   5.171  0.00  0.00    +0.000 A 
ATOM     17  C3  056 A1922      24.295   4.862   4.578  0.00  0.00    +0.000 A 
ATOM     18  C4  056 A1922      24.528   6.214   4.367  0.00  0.00    +0.000 A 
ATOM     19  C5  056 A1922      25.724   6.835   4.733  0.00  0.00    +0.000 A 
ATOM     20 CL2  056 A1922      25.964   8.599   4.417  0.00  0.00    +0.000 Cl
ENDBRANCH  12  16
ENDBRANCH   1  12
TORSDOF 5
ENDMDL
MODEL 2
REMARK VINA RESULT:      -7.9      3.729      6.478
REMARK  Name = ligand_pdbs\056.pdb
REMARK  5 active torsions:
REMARK  status: ('A' for Active; 'I' for Inactive)
REMARK    1  A    between atoms: C16_2  and  C12_4
REMARK    2  A    between atoms: C10_6  and  C9_12
REMARK    3  A    between atoms: S8_10  and  C9_12
REMARK    4  A    between atoms: S8_10  and  C7_16
REMARK    5  A    between atoms: C2_15  and  C7_16
REMARK                            x       y       z     vdW  Elec       q    Type
REMARK                         _______ _______ _______ _____ _____    ______ ____
ROOT
ATOM      1  S8  056 A1922      25.433   1.194   2.614  0.00  0.00    +0.000 S 
ENDROOT
BRANCH   1   2
ATOM      2  C9  056 A1922      24.937   1.486   4.288  0.00  0.00    +0.000 C 
BRANCH   2   5
ATOM      3  C12 056 A1922      25.845   5.174   4.618  0.00  0.00    +0.000 A 
ATOM      4  C11 056 A1922      26.020   3.794   4.499  0.00  0.00    +0.000 A 
ATOM      5  C10 056 A1922      24.896   2.988   4.412  0.00  0.00    +0.000 A 
ATOM      6  C15 056 A1922      23.654   3.566   4.477  0.00  0.00    +0.000 A 
ATOM      7  C14 056 A1922      23.496   4.932   4.600  0.00  0.00    +0.000 A 
ATOM      8  C13 056 A1922      24.596   5.745   4.679  0.00  0.00    +0.000 A 
BRANCH   3  10
ATOM      9  O17 056 A1922      28.060   5.720   4.266  0.00  0.00    +0.000 OA
ATOM     10  C16 056 A1922      26.976   6.129   4.721  0.00  0.00    +0.000 C 
ATOM     11  O18 056 A1922      26.827   7.258   5.245  0.00  0.00    +0.000 OA
ENDBRANCH   3  10
ENDBRANCH   2   5
ENDBRANCH   1   2
BRANCH   1  12
ATOM     12  C7  056 A1922      26.806   0.096   2.534  0.00  0.00    +0.000 C 
BRANCH  12  16
ATOM     13  C6  056 A1922      28.854  -0.474   5.819  0.00  0.00    +0.000 A 
ATOM     14  C1  056 A1922      27.907  -0.733   4.826  0.00  0.00    +0.000 A 
ATOM     15 CL1  056 A1922      26.910  -2.233   4.984  0.00  0.00    +0.000 Cl
ATOM     16  C2  056 A1922      27.788   0.235   3.680  0.00  0.00    +0.000 A 
ATOM     17  C3  056 A1922      28.611   1.354   3.666  0.00  0.00    +0.000 A 
ATOM     18  C4  056 A1922      29.529   1.550   4.689  0.00  0.00    +0.000 A 
ATOM     19  C5  056 A1922      29.664   0.659   5.755  0.00  0.00    +0.000 A 
ATOM     20 CL2  056 A1922      30.890   0.970   7.048  0.00  0.00    +0.000 Cl
ENDBRANCH  12  16
ENDBRANCH   1  12
TORSDOF 5
ENDMDL
MODEL 3
REMARK VINA RESULT:      -7.6      1.713      2.200
REMARK  Name = ligand_pdbs\056.pdb
REMARK  5 active torsions:
REMARK  status: ('A' for Active; 'I' for Inactive)
REMARK    1  A    between atoms: C16_2  and  C12_4
REMARK    2  A    between atoms: C10_6  and  C9_12
REMARK    3  A    between atoms: S8_10  and  C9_12
REMARK    4  A    between atoms: S8_10  and  C7_16
REMARK    5  A    between atoms: C2_15  and  C7_16
REMARK                            x       y       z     vdW  Elec       q    Type
REMARK                         _______ _______ _______ _____ _____    ______ ____
ROOT
ATOM      1  S8  056 A1922      24.717   1.698   3.826  0.00  0.00    +0.000 S 
ENDROOT
BRANCH   1   2
ATOM      2  C9  056 A1922      26.106   2.003   2.771  0.00  0.00    +0.000 C 
BRANCH   2   5
ATOM      3  C12 056 A1922      29.088   0.746   4.786  0.00  0.00    +0.000 A 
ATOM      4  C11 056 A1922      28.098   1.617   4.329  0.00  0.00    +0.000 A 
ATOM      5  C10 056 A1922      27.215   1.169   3.360  0.00  0.00    +0.000 A 
ATOM      6  C15 056 A1922      27.361  -0.101   2.861  0.00  0.00    +0.000 A 
ATOM      7  C14 056 A1922      28.348  -0.950   3.319  0.00  0.00    +0.000 A 
ATOM      8  C13 056 A1922      29.224  -0.526   4.283  0.00  0.00    +0.000 A 
BRANCH   3  10
ATOM      9  O17 056 A1922      30.695   2.185   5.607  0.00  0.00    +0.000 OA
ATOM     10  C16 056 A1922      30.086   1.120   5.819  0.00  0.00    +0.000 C 
ATOM     11  O18 056 A1922      30.292   0.392   6.817  0.00  0.00    +0.000 OA
ENDBRANCH   3  10
ENDBRANCH   2   5
ENDBRANCH   1   2
BRANCH   1  12
ATOM     12  C7  056 A1922      24.831   2.620   5.321  0.00  0.00    +0.000 C 
BRANCH  12  16
ATOM     13  C6  056 A1922      26.630   6.094   5.398  0.00  0.00    +0.000 A 
ATOM     14  C1  056 A1922      26.440   4.733   5.641  0.00  0.00    +0.000 A 
ATOM     15 CL1  056 A1922      27.739   3.848   6.534  0.00  0.00    +0.000 Cl
ATOM     16  C2  056 A1922      25.183   4.082   5.130  0.00  0.00    +0.000 A 
ATOM     17  C3  056 A1922      24.255   4.865   4.454  0.00  0.00    +0.000 A 
ATOM     18  C4  056 A1922      24.508   6.215   4.250  0.00  0.00    +0.000 A 
ATOM     19  C5  056 A1922      25.673   6.836   4.705  0.00  0.00    +0.000 A 
ATOM     20 CL2  056 A1922      25.943   8.597   4.393  0.00  0.00    +0.000 Cl
ENDBRANCH  12  16
ENDBRANCH   1  12
TORSDOF 5
ENDMDL
MODEL 4
REMARK VINA RESULT:      -7.6      4.191      7.223
REMARK  Name = ligand_pdbs\056.pdb
REMARK  5 active torsions:
REMARK  status: ('A' for Active; 'I' for Inactive)
REMARK    1  A    between atoms: C16_2  and  C12_4
REMARK    2  A    between atoms: C10_6  and  C9_12
REMARK    3  A    between atoms: S8_10  and  C9_12
REMARK    4  A    between atoms: S8_10  and  C7_16
REMARK    5  A    between atoms: C2_15  and  C7_16
REMARK                            x       y       z     vdW  Elec       q    Type
REMARK                         _______ _______ _______ _____ _____    ______ ____
ROOT
ATOM      1  S8  056 A1922      28.576   3.397   5.836  0.00  0.00    +0.000 S 
ENDROOT
BRANCH   1   2
ATOM      2  C9  056 A1922      27.040   3.058   6.648  0.00  0.00    +0.000 C 
BRANCH   2   5
ATOM      3  C12 056 A1922      25.202   5.834   4.790  0.00  0.00    +0.000 A 
ATOM      4  C11 056 A1922      26.227   5.184   5.479  0.00  0.00    +0.000 A 
ATOM      5  C10 056 A1922      26.025   3.876   5.889  0.00  0.00    +0.000 A 
ATOM      6  C15 056 A1922      24.819   3.275   5.633  0.00  0.00    +0.000 A 
ATOM      7  C14 056 A1922      23.813   3.932   4.954  0.00  0.00    +0.000 A 
ATOM      8  C13 056 A1922      23.998   5.223   4.534  0.00  0.00    +0.000 A 
BRANCH   3  10
ATOM      9  O17 056 A1922      25.021   7.405   3.108  0.00  0.00    +0.000 OA
ATOM     10  C16 056 A1922      25.309   7.233   4.306  0.00  0.00    +0.000 C 
ATOM     11  O18 056 A1922      25.679   8.157   5.068  0.00  0.00    +0.000 OA
ENDBRANCH   3  10
ENDBRANCH   2   5
ENDBRANCH   1   2
BRANCH   1  12
ATOM     12  C7  056 A1922      28.670   2.589   4.276  0.00  0.00    +0.000 C 
BRANCH  12  16
ATOM     13  C6  056 A1922      26.450  -0.565   3.616  0.00  0.00    +0.000 A 
ATOM     14  C1  056 A1922      26.858   0.767   3.533  0.00  0.00    +0.000 A 
ATOM     15 CL1  056 A1922      25.862   1.891   2.525  0.00  0.00    +0.000 Cl
ATOM     16  C2  056 A1922      28.105   1.182   4.264  0.00  0.00    +0.000 A 
ATOM     17  C3  056 A1922      28.790   0.228   5.006  0.00  0.00    +0.000 A 
ATOM     18  C4  056 A1922      28.326  -1.080   5.047  0.00  0.00    +0.000 A 
ATOM     19  C5  056 A1922      27.178  -1.489   4.366  0.00  0.00    +0.000 A 
ATOM     20 CL2  056 A1922      26.636  -3.212   4.454  0.00  0.00    +0.000 Cl
ENDBRANCH  12  16
ENDBRANCH   1  12
TORSDOF 5
ENDMDL
MODEL 5
REMARK VINA RESULT:      -7.4      3.901      7.040
REMARK  Name = ligand_pdbs\056.pdb
REMARK  5 active torsions:
REMARK  status: ('A' for Active; 'I' for Inactive)
REMARK    1  A    between atoms: C16_2  and  C12_4
REMARK    2  A    between atoms: C10_6  and  C9_12
REMARK    3  A    between atoms: S8_10  and  C9_12
REMARK    4  A    between atoms: S8_10  and  C7_16
REMARK    5  A    between atoms: C2_15  and  C7_16
REMARK                            x       y       z     vdW  Elec       q    Type
REMARK                         _______ _______ _______ _____ _____    ______ ____
ROOT
ATOM      1  S8  056 A1922      25.003   1.169   3.394  0.00  0.00    +0.000 S 
ENDROOT
BRANCH   1   2
ATOM      2  C9  056 A1922      26.184   2.428   2.998  0.00  0.00    +0.000 C 
BRANCH   2   5
ATOM      3  C12 056 A1922      25.873   5.850   4.648  0.00  0.00    +0.000 A 
ATOM      4  C11 056 A1922      26.448   4.788   3.950  0.00  0.00    +0.000 A 
ATOM      5  C10 056 A1922      25.688   3.651   3.728  0.00  0.00    +0.000 A 
ATOM      6  C15 056 A1922      24.411   3.594   4.226  0.00  0.00    +0.000 A 
ATOM      7  C14 056 A1922      23.857   4.652   4.919  0.00  0.00    +0.000 A 
ATOM      8  C13 056 A1922      24.592   5.786   5.141  0.00  0.00    +0.000 A 
BRANCH   3  10
ATOM      9  O17 056 A1922      25.929   8.153   4.794  0.00  0.00    +0.000 OA
ATOM     10  C16 056 A1922      26.595   7.113   4.944  0.00  0.00    +0.000 C 
ATOM     11  O18 056 A1922      27.795   7.105   5.306  0.00  0.00    +0.000 OA
ENDBRANCH   3  10
ENDBRANCH   2   5
ENDBRANCH   1   2
BRANCH   1  12
ATOM     12  C7  056 A1922      25.579   0.138   4.699  0.00  0.00    +0.000 C 
BRANCH  12  16
ATOM     13  C6  056 A1922      29.445  -0.455   4.801  0.00  0.00    +0.000 A 
ATOM     14  C1  056 A1922      28.225   0.161   5.086  0.00  0.00    +0.000 A 
ATOM     15 CL1  056 A1922      28.245   1.602   6.178  0.00  0.00    +0.000 Cl
ATOM     16  C2  056 A1922      26.972  -0.420   4.489  0.00  0.00    +0.000 A 
ATOM     17  C3  056 A1922      27.082  -1.533   3.665  0.00  0.00    +0.000 A 
ATOM     18  C4  056 A1922      28.329  -2.093   3.421  0.00  0.00    +0.000 A 
ATOM     19  C5  056 A1922      29.502  -1.577   3.975  0.00  0.00    +0.000 A 
ATOM     20 CL2  056 A1922      31.093  -2.364   3.625  0.00  0.00    +0.000 Cl
ENDBRANCH  12  16
ENDBRANCH   1  12
TORSDOF 5
ENDMDL
MODEL 6
REMARK VINA RESULT:      -7.2      4.825      7.340
REMARK  Name = ligand_pdbs\056.pdb
REMARK  5 active torsions:
REMARK  status: ('A' for Active; 'I' for Inactive)
REMARK    1  A    between atoms: C16_2  and  C12_4
REMARK    2  A    between atoms: C10_6  and  C9_12
REMARK    3  A    between atoms: S8_10  and  C9_12
REMARK    4  A    between atoms: S8_10  and  C7_16
REMARK    5  A    between atoms: C2_15  and  C7_16
REMARK                            x       y       z     vdW  Elec       q    Type
REMARK                         _______ _______ _______ _____ _____    ______ ____
ROOT
ATOM      1  S8  056 A1922      28.601   3.748   5.067  0.00  0.00    +0.000 S 
ENDROOT
BRANCH   1   2
ATOM      2  C9  056 A1922      27.597   3.869   3.614  0.00  0.00    +0.000 C 
BRANCH   2   5
ATOM      3  C12 056 A1922      25.486   6.859   4.682  0.00  0.00    +0.000 A 
ATOM      4  C11 056 A1922      26.616   6.125   4.318  0.00  0.00    +0.000 A 
ATOM      5  C10 056 A1922      26.465   4.782   4.014  0.00  0.00    +0.000 A 
ATOM      6  C15 056 A1922      25.221   4.211   4.112  0.00  0.00    +0.000 A 
ATOM      7  C14 056 A1922      24.113   4.949   4.478  0.00  0.00    +0.000 A 
ATOM      8  C13 056 A1922      24.243   6.280   4.774  0.00  0.00    +0.000 A 
BRANCH   3  10
ATOM      9  O17 056 A1922      26.087   9.032   4.189  0.00  0.00    +0.000 OA
ATOM     10  C16 056 A1922      25.533   8.301   5.029  0.00  0.00    +0.000 C 
ATOM     11  O18 056 A1922      25.052   8.726   6.105  0.00  0.00    +0.000 OA
ENDBRANCH   3  10
ENDBRANCH   2   5
ENDBRANCH   1   2
BRANCH   1  12
ATOM     12  C7  056 A1922      27.857   2.709   6.277  0.00  0.00    +0.000 C 
BRANCH  12  16
ATOM     13  C6  056 A1922      28.362  -1.093   5.498  0.00  0.00    +0.000 A 
ATOM     14  C1  056 A1922      28.685   0.185   5.959  0.00  0.00    +0.000 A 
ATOM     15 CL1  056 A1922      30.317   0.426   6.699  0.00  0.00    +0.000 Cl
ATOM     16  C2  056 A1922      27.654   1.274   5.832  0.00  0.00    +0.000 A 
ATOM     17  C3  056 A1922      26.432   0.969   5.245  0.00  0.00    +0.000 A 
ATOM     18  C4  056 A1922      26.180  -0.324   4.806  0.00  0.00    +0.000 A 
ATOM     19  C5  056 A1922      27.117  -1.352   4.926  0.00  0.00    +0.000 A 
ATOM     20 CL2  056 A1922      26.717  -3.017   4.344  0.00  0.00    +0.000 Cl
ENDBRANCH  12  16
ENDBRANCH   1  12
TORSDOF 5
ENDMDL
MODEL 7
REMARK VINA RESULT:      -7.2      3.265      4.917
REMARK  Name = ligand_pdbs\056.pdb
REMARK  5 active torsions:
REMARK  status: ('A' for Active; 'I' for Inactive)
REMARK    1  A    between atoms: C16_2  and  C12_4
REMARK    2  A    between atoms: C10_6  and  C9_12
REMARK    3  A    between atoms: S8_10  and  C9_12
REMARK    4  A    between atoms: S8_10  and  C7_16
REMARK    5  A    between atoms: C2_15  and  C7_16
REMARK                            x       y       z     vdW  Elec       q    Type
REMARK                         _______ _______ _______ _____ _____    ______ ____
ROOT
ATOM      1  S8  056 A1922      27.932  -1.066   3.657  0.00  0.00    +0.000 S 
ENDROOT
BRANCH   1   2
ATOM      2  C9  056 A1922      26.887  -0.869   5.073  0.00  0.00    +0.000 C 
BRANCH   2   5
ATOM      3  C12 056 A1922      24.903   2.386   5.111  0.00  0.00    +0.000 A 
ATOM      4  C11 056 A1922      25.760   1.377   5.553  0.00  0.00    +0.000 A 
ATOM      5  C10 056 A1922      25.993   0.293   4.722  0.00  0.00    +0.000 A 
ATOM      6  C15 056 A1922      25.353   0.232   3.510  0.00  0.00    +0.000 A 
ATOM      7  C14 056 A1922      24.504   1.235   3.088  0.00  0.00    +0.000 A 
ATOM      8  C13 056 A1922      24.268   2.318   3.894  0.00  0.00    +0.000 A 
BRANCH   3  10
ATOM      9  O17 056 A1922      25.034   3.588   7.077  0.00  0.00    +0.000 OA
ATOM     10  C16 056 A1922      24.580   3.589   5.918  0.00  0.00    +0.000 C 
ATOM     11  O18 056 A1922      23.887   4.520   5.447  0.00  0.00    +0.000 OA
ENDBRANCH   3  10
ENDBRANCH   2   5
ENDBRANCH   1   2
BRANCH   1  12
ATOM     12  C7  056 A1922      29.283   0.062   3.695  0.00  0.00    +0.000 C 
BRANCH  12  16
ATOM     13  C6  056 A1922      28.838   3.362   5.749  0.00  0.00    +0.000 A 
ATOM     14  C1  056 A1922      29.245   2.055   5.478  0.00  0.00    +0.000 A 
ATOM     15 CL1  056 A1922      30.164   1.176   6.764  0.00  0.00    +0.000 Cl
ATOM     16  C2  056 A1922      28.916   1.465   4.134  0.00  0.00    +0.000 A 
ATOM     17  C3  056 A1922      28.205   2.238   3.224  0.00  0.00    +0.000 A 
ATOM     18  C4  056 A1922      27.829   3.531   3.562  0.00  0.00    +0.000 A 
ATOM     19  C5  056 A1922      28.134   4.102   4.799  0.00  0.00    +0.000 A 
ATOM     20 CL2  056 A1922      27.623   5.797   5.168  0.00  0.00    +0.000 Cl
ENDBRANCH  12  16
ENDBRANCH   1  12
TORSDOF 5
ENDMDL
MODEL 8
REMARK VINA RESULT:      -7.1      4.335      7.455
REMARK  Name = ligand_pdbs\056.pdb
REMARK  5 active torsions:
REMARK  status: ('A' for Active; 'I' for Inactive)
REMARK    1  A    between atoms: C16_2  and  C12_4
REMARK    2  A    between atoms: C10_6  and  C9_12
REMARK    3  A    between atoms: S8_10  and  C9_12
REMARK    4  A    between atoms: S8_10  and  C7_16
REMARK    5  A    between atoms: C2_15  and  C7_16
REMARK                            x       y       z     vdW  Elec       q    Type
REMARK                         _______ _______ _______ _____ _____    ______ ____
ROOT
ATOM      1  S8  056 A1922      25.184   2.074   5.100  0.00  0.00    +0.000 S 
ENDROOT
BRANCH   1   2
ATOM      2  C9  056 A1922      24.241   3.513   4.685  0.00  0.00    +0.000 C 
BRANCH   2   5
ATOM      3  C12 056 A1922      25.818   6.961   5.084  0.00  0.00    +0.000 A 
ATOM      4  C11 056 A1922      24.828   5.994   4.909  0.00  0.00    +0.000 A 
ATOM      5  C10 056 A1922      25.201   4.660   4.875  0.00  0.00    +0.000 A 
ATOM      6  C15 056 A1922      26.531   4.337   4.983  0.00  0.00    +0.000 A 
ATOM      7  C14 056 A1922      27.500   5.305   5.151  0.00  0.00    +0.000 A 
ATOM      8  C13 056 A1922      27.147   6.628   5.195  0.00  0.00    +0.000 A 
BRANCH   3  10
ATOM      9  O17 056 A1922      25.982   9.079   4.182  0.00  0.00    +0.000 OA
ATOM     10  C16 056 A1922      25.531   8.417   5.134  0.00  0.00    +0.000 C 
ATOM     11  O18 056 A1922      24.889   8.920   6.085  0.00  0.00    +0.000 OA
ENDBRANCH   3  10
ENDBRANCH   2   5
ENDBRANCH   1   2
BRANCH   1  12
ATOM     12  C7  056 A1922      25.211   0.919   3.772  0.00  0.00    +0.000 C 
BRANCH  12  16
ATOM     13  C6  056 A1922      28.907  -0.317   3.416  0.00  0.00    +0.000 A 
ATOM     14  C1  056 A1922      27.847   0.590   3.453  0.00  0.00    +0.000 A 
ATOM     15 CL1  056 A1922      28.228   2.341   3.211  0.00  0.00    +0.000 Cl
ATOM     16  C2  056 A1922      26.461   0.064   3.711  0.00  0.00    +0.000 A 
ATOM     17  C3  056 A1922      26.290  -1.304   3.884  0.00  0.00    +0.000 A 
ATOM     18  C4  056 A1922      27.390  -2.150   3.832  0.00  0.00    +0.000 A 
ATOM     19  C5  056 A1922      28.686  -1.681   3.606  0.00  0.00    +0.000 A 
ATOM     20 CL2  056 A1922      30.075  -2.838   3.563  0.00  0.00    +0.000 Cl
ENDBRANCH  12  16
ENDBRANCH   1  12
TORSDOF 5
ENDMDL
MODEL 9
REMARK VINA RESULT:      -7.0      2.023      3.691
REMARK  Name = ligand_pdbs\056.pdb
REMARK  5 active torsions:
REMARK  status: ('A' for Active; 'I' for Inactive)
REMARK    1  A    between atoms: C16_2  and  C12_4
REMARK    2  A    between atoms: C10_6  and  C9_12
REMARK    3  A    between atoms: S8_10  and  C9_12
REMARK    4  A    between atoms: S8_10  and  C7_16
REMARK    5  A    between atoms: C2_15  and  C7_16
REMARK                            x       y       z     vdW  Elec       q    Type
REMARK                         _______ _______ _______ _____ _____    ______ ____
ROOT
ATOM      1  S8  056 A1922      24.209   4.277   4.451  0.00  0.00    +0.000 S 
ENDROOT
BRANCH   1   2
ATOM      2  C9  056 A1922      23.782   2.629   4.936  0.00  0.00    +0.000 C 
BRANCH   2   5
ATOM      3  C12 056 A1922      26.497   0.060   4.183  0.00  0.00    +0.000 A 
ATOM      4  C11 056 A1922      25.563   0.792   4.918  0.00  0.00    +0.000 A 
ATOM      5  C10 056 A1922      24.817   1.761   4.266  0.00  0.00    +0.000 A 
ATOM      6  C15 056 A1922      25.041   1.989   2.932  0.00  0.00    +0.000 A 
ATOM      7  C14 056 A1922      25.971   1.260   2.219  0.00  0.00    +0.000 A 
ATOM      8  C13 056 A1922      26.712   0.293   2.846  0.00  0.00    +0.000 A 
BRANCH   3  10
ATOM      9  O17 056 A1922      28.576  -0.805   4.691  0.00  0.00    +0.000 OA
ATOM     10  C16 056 A1922      27.350  -0.998   4.780  0.00  0.00    +0.000 C 
ATOM     11  O18 056 A1922      26.846  -2.012   5.317  0.00  0.00    +0.000 OA
ENDBRANCH   3  10
ENDBRANCH   2   5
ENDBRANCH   1   2
BRANCH   1  12
ATOM     12  C7  056 A1922      25.446   4.956   5.503  0.00  0.00    +0.000 C 
BRANCH  12  16
ATOM     13  C6  056 A1922      28.840   3.173   4.721  0.00  0.00    +0.000 A 
ATOM     14  C1  056 A1922      27.722   3.977   4.495  0.00  0.00    +0.000 A 
ATOM     15 CL1  056 A1922      27.589   4.801   2.891  0.00  0.00    +0.000 Cl
ATOM     16  C2  056 A1922      26.711   4.127   5.599  0.00  0.00    +0.000 A 
ATOM     17  C3  056 A1922      26.922   3.445   6.791  0.00  0.00    +0.000 A 
ATOM     18  C4  056 A1922      28.056   2.660   6.947  0.00  0.00    +0.000 A 
ATOM     19  C5  056 A1922      29.013   2.517   5.940  0.00  0.00    +0.000 A 
ATOM     20 CL2  056 A1922      30.473   1.487   6.216  0.00  0.00    +0.000 Cl
ENDBRANCH  12  16
ENDBRANCH   1  12
TORSDOF 5
ENDMDL
