MODEL 1
REMARK VINA RESULT:      -7.1      0.000      0.000
REMARK  Name = ligand_pdbs\0XU.pdb
REMARK  6 active torsions:
REMARK  status: ('A' for Active; 'I' for Inactive)
REMARK    1  A    between atoms: CA_2  and  C_3
REMARK    2  A    between atoms: CA_2  and  CB_6
REMARK    3  A    between atoms: CB_6  and  CG_7
REMARK    4  A    between atoms: CG_7  and  CD_8
REMARK    5  A    between atoms: CD_8  and  C5'_10
REMARK    6  A    between atoms: C1'_17  and  N9_18
REMARK                            x       y       z     vdW  Elec       q    Type
REMARK                         _______ _______ _______ _____ _____    ______ ____
ROOT
ATOM      1  C5' 0XU A 701      28.220   1.873   6.133  0.00  0.00    +0.000 C 
ATOM      2  C4' 0XU A 701      27.016   1.914   5.561  0.00  0.00    +0.000 C 
ATOM      3  O4' 0XU A 701      26.078   2.770   6.089  0.00  0.00    +0.000 OA
ATOM      4  C3' 0XU A 701      26.491   1.133   4.398  0.00  0.00    +0.000 C 
ATOM      5  O3' 0XU A 701      25.772   0.026   4.916  0.00  0.00    +0.000 OA
ATOM      6  C2' 0XU A 701      25.510   2.150   3.830  0.00  0.00    +0.000 C 
ATOM      7  O2' 0XU A 701      24.331   1.586   3.274  0.00  0.00    +0.000 OA
ATOM      8  C1' 0XU A 701      25.102   2.941   5.063  0.00  0.00    +0.000 C 
ENDROOT
BRANCH   8   9
ATOM      9  N9  0XU A 701      24.864   4.354   4.820  0.00  0.00    +0.000 N 
ATOM     10  C8  0XU A 701      23.684   5.012   4.581  0.00  0.00    +0.000 C 
ATOM     11  N7  0XU A 701      23.852   6.338   4.536  0.00  0.00    +0.000 NA
ATOM     12  C5  0XU A 701      25.212   6.530   4.770  0.00  0.00    +0.000 C 
ATOM     13  C6  0XU A 701      26.044   7.645   4.793  0.00  0.00    +0.000 C 
ATOM     14  N6  0XU A 701      25.568   8.977   4.597  0.00  0.00    +0.000 NA
ATOM     15  N1  0XU A 701      27.356   7.453   5.056  0.00  0.00    +0.000 NA
ATOM     16  C2  0XU A 701      27.843   6.197   5.225  0.00  0.00    +0.000 C 
ATOM     17  N3  0XU A 701      27.147   5.043   5.203  0.00  0.00    +0.000 NA
ATOM     18  C4  0XU A 701      25.843   5.293   4.951  0.00  0.00    +0.000 C 
ENDBRANCH   8   9
BRANCH   1  19
ATOM     19  CD  0XU A 701      29.461   1.137   5.724  0.00  0.00    +0.000 C 
ATOM     20  NE  0XU A 701      29.825   0.153   6.771  0.00  0.00    +0.000 NA
BRANCH  19  21
ATOM     21  CG  0XU A 701      29.235   0.548   4.319  0.00  0.00    +0.000 C 
BRANCH  21  22
ATOM     22  CB  0XU A 701      29.513  -0.957   4.332  0.00  0.00    +0.000 C 
BRANCH  22  24
ATOM     23  N   0XU A 701      27.897  -1.287   2.399  0.00  0.00    +0.000 NA
ATOM     24  CA  0XU A 701      28.515  -1.868   3.598  0.00  0.00    +0.000 C 
BRANCH  24  25
ATOM     25  C   0XU A 701      27.456  -2.466   4.505  0.00  0.00    +0.000 C 
ATOM     26  O   0XU A 701      27.639  -2.088   5.808  0.00  0.00    +0.000 OA
ATOM     27  OXT 0XU A 701      26.548  -3.206   4.129  0.00  0.00    +0.000 OA
ENDBRANCH  24  25
ENDBRANCH  22  24
ENDBRANCH  21  22
ENDBRANCH  19  21
ENDBRANCH   1  19
TORSDOF 6
ENDMDL
MODEL 2
REMARK VINA RESULT:      -7.0      2.175      7.582
REMARK  Name = ligand_pdbs\0XU.pdb
REMARK  6 active torsions:
REMARK  status: ('A' for Active; 'I' for Inactive)
REMARK    1  A    between atoms: CA_2  and  C_3
REMARK    2  A    between atoms: CA_2  and  CB_6
REMARK    3  A    between atoms: CB_6  and  CG_7
REMARK    4  A    between atoms: CG_7  and  CD_8
REMARK    5  A    between atoms: CD_8  and  C5'_10
REMARK    6  A    between atoms: C1'_17  and  N9_18
REMARK                            x       y       z     vdW  Elec       q    Type
REMARK                         _______ _______ _______ _____ _____    ______ ____
ROOT
ATOM      1  C5' 0XU A 701      24.253   2.911   4.640  0.00  0.00    +0.000 C 
ATOM      2  C4' 0XU A 701      25.382   2.786   5.338  0.00  0.00    +0.000 C 
ATOM      3  O4' 0XU A 701      25.896   1.523   5.516  0.00  0.00    +0.000 OA
ATOM      4  C3' 0XU A 701      26.207   3.841   6.006  0.00  0.00    +0.000 C 
ATOM      5  O3' 0XU A 701      25.828   3.879   7.373  0.00  0.00    +0.000 OA
ATOM      6  C2' 0XU A 701      27.585   3.204   5.882  0.00  0.00    +0.000 C 
ATOM      7  O2' 0XU A 701      28.450   3.451   6.981  0.00  0.00    +0.000 OA
ATOM      8  C1' 0XU A 701      27.263   1.718   5.876  0.00  0.00    +0.000 C 
ENDROOT
BRANCH   8   9
ATOM      9  N9  0XU A 701      28.129   0.919   5.026  0.00  0.00    +0.000 N 
ATOM     10  C8  0XU A 701      29.303   1.265   4.404  0.00  0.00    +0.000 C 
ATOM     11  N7  0XU A 701      29.882   0.215   3.811  0.00  0.00    +0.000 NA
ATOM     12  C5  0XU A 701      29.033  -0.856   4.082  0.00  0.00    +0.000 C 
ATOM     13  C6  0XU A 701      29.016  -2.197   3.711  0.00  0.00    +0.000 C 
ATOM     14  N6  0XU A 701      30.036  -2.798   2.912  0.00  0.00    +0.000 NA
ATOM     15  N1  0XU A 701      28.004  -2.969   4.166  0.00  0.00    +0.000 NA
ATOM     16  C2  0XU A 701      27.008  -2.422   4.908  0.00  0.00    +0.000 C 
ATOM     17  N3  0XU A 701      26.901  -1.140   5.312  0.00  0.00    +0.000 NA
ATOM     18  C4  0XU A 701      27.942  -0.419   4.842  0.00  0.00    +0.000 C 
ENDBRANCH   8   9
BRANCH   1  19
ATOM     19  CD  0XU A 701      23.525   4.143   4.192  0.00  0.00    +0.000 C 
ATOM     20  NE  0XU A 701      22.062   3.904   4.248  0.00  0.00    +0.000 NA
BRANCH  19  21
ATOM     21  CG  0XU A 701      24.028   5.335   5.025  0.00  0.00    +0.000 C 
BRANCH  21  22
ATOM     22  CB  0XU A 701      24.379   6.506   4.105  0.00  0.00    +0.000 C 
BRANCH  22  24
ATOM     23  N   0XU A 701      26.622   5.697   3.230  0.00  0.00    +0.000 NA
ATOM     24  CA  0XU A 701      25.869   6.791   3.856  0.00  0.00    +0.000 C 
BRANCH  24  25
ATOM     25  C   0XU A 701      26.602   7.309   5.078  0.00  0.00    +0.000 C 
ATOM     26  O   0XU A 701      25.835   8.194   5.787  0.00  0.00    +0.000 OA
ATOM     27  OXT 0XU A 701      27.746   6.988   5.398  0.00  0.00    +0.000 OA
ENDBRANCH  24  25
ENDBRANCH  22  24
ENDBRANCH  21  22
ENDBRANCH  19  21
ENDBRANCH   1  19
TORSDOF 6
ENDMDL
MODEL 3
REMARK VINA RESULT:      -6.8      1.851      3.179
REMARK  Name = ligand_pdbs\0XU.pdb
REMARK  6 active torsions:
REMARK  status: ('A' for Active; 'I' for Inactive)
REMARK    1  A    between atoms: CA_2  and  C_3
REMARK    2  A    between atoms: CA_2  and  CB_6
REMARK    3  A    between atoms: CB_6  and  CG_7
REMARK    4  A    between atoms: CG_7  and  CD_8
REMARK    5  A    between atoms: CD_8  and  C5'_10
REMARK    6  A    between atoms: C1'_17  and  N9_18
REMARK                            x       y       z     vdW  Elec       q    Type
REMARK                         _______ _______ _______ _____ _____    ______ ____
ROOT
ATOM      1  C5' 0XU A 701      26.903  -1.003   5.417  0.00  0.00    +0.000 C 
ATOM      2  C4' 0XU A 701      26.287  -0.047   4.721  0.00  0.00    +0.000 C 
ATOM      3  O4' 0XU A 701      25.775   1.027   5.410  0.00  0.00    +0.000 OA
ATOM      4  C3' 0XU A 701      26.035   0.044   3.249  0.00  0.00    +0.000 C 
ATOM      5  O3' 0XU A 701      24.720  -0.430   3.010  0.00  0.00    +0.000 OA
ATOM      6  C2' 0XU A 701      26.065   1.556   3.077  0.00  0.00    +0.000 C 
ATOM      7  O2' 0XU A 701      25.161   2.058   2.103  0.00  0.00    +0.000 OA
ATOM      8  C1' 0XU A 701      25.596   2.053   4.436  0.00  0.00    +0.000 C 
ENDROOT
BRANCH   8   9
ATOM      9  N9  0XU A 701      26.228   3.285   4.876  0.00  0.00    +0.000 N 
ATOM     10  C8  0XU A 701      27.504   3.497   5.335  0.00  0.00    +0.000 C 
ATOM     11  N7  0XU A 701      27.758   4.797   5.521  0.00  0.00    +0.000 NA
ATOM     12  C5  0XU A 701      26.582   5.444   5.149  0.00  0.00    +0.000 C 
ATOM     13  C6  0XU A 701      26.159   6.769   5.162  0.00  0.00    +0.000 C 
ATOM     14  N6  0XU A 701      26.995   7.851   5.575  0.00  0.00    +0.000 NA
ATOM     15  N1  0XU A 701      24.910   7.042   4.721  0.00  0.00    +0.000 NA
ATOM     16  C2  0XU A 701      24.084   6.034   4.343  0.00  0.00    +0.000 C 
ATOM     17  N3  0XU A 701      24.368   4.716   4.307  0.00  0.00    +0.000 NA
ATOM     18  C4  0XU A 701      25.628   4.503   4.743  0.00  0.00    +0.000 C 
ENDBRANCH   8   9
BRANCH   1  19
ATOM     19  CD  0XU A 701      27.646  -2.217   4.944  0.00  0.00    +0.000 C 
ATOM     20  NE  0XU A 701      26.687  -3.206   4.395  0.00  0.00    +0.000 NA
BRANCH  19  21
ATOM     21  CG  0XU A 701      28.749  -1.763   3.971  0.00  0.00    +0.000 C 
BRANCH  21  22
ATOM     22  CB  0XU A 701      29.814  -0.962   4.723  0.00  0.00    +0.000 C 
BRANCH  22  24
ATOM     23  N   0XU A 701      29.595   1.368   3.736  0.00  0.00    +0.000 NA
ATOM     24  CA  0XU A 701      29.549   0.536   4.945  0.00  0.00    +0.000 C 
BRANCH  24  25
ATOM     25  C   0XU A 701      30.398   1.148   6.044  0.00  0.00    +0.000 C 
ATOM     26  O   0XU A 701      30.808   2.413   5.716  0.00  0.00    +0.000 OA
ATOM     27  OXT 0XU A 701      30.693   0.587   7.097  0.00  0.00    +0.000 OA
ENDBRANCH  24  25
ENDBRANCH  22  24
ENDBRANCH  21  22
ENDBRANCH  19  21
ENDBRANCH   1  19
TORSDOF 6
ENDMDL
MODEL 4
REMARK VINA RESULT:      -6.5      2.226      3.862
REMARK  Name = ligand_pdbs\0XU.pdb
REMARK  6 active torsions:
REMARK  status: ('A' for Active; 'I' for Inactive)
REMARK    1  A    between atoms: CA_2  and  C_3
REMARK    2  A    between atoms: CA_2  and  CB_6
REMARK    3  A    between atoms: CB_6  and  CG_7
REMARK    4  A    between atoms: CG_7  and  CD_8
REMARK    5  A    between atoms: CD_8  and  C5'_10
REMARK    6  A    between atoms: C1'_17  and  N9_18
REMARK                            x       y       z     vdW  Elec       q    Type
REMARK                         _______ _______ _______ _____ _____    ______ ____
ROOT
ATOM      1  C5' 0XU A 701      29.225  -0.154   3.187  0.00  0.00    +0.000 C 
ATOM      2  C4' 0XU A 701      29.318   0.781   4.133  0.00  0.00    +0.000 C 
ATOM      3  O4' 0XU A 701      29.446   2.091   3.737  0.00  0.00    +0.000 OA
ATOM      4  C3' 0XU A 701      29.325   0.628   5.622  0.00  0.00    +0.000 C 
ATOM      5  O3' 0XU A 701      30.678   0.624   6.045  0.00  0.00    +0.000 OA
ATOM      6  C2' 0XU A 701      28.676   1.948   6.017  0.00  0.00    +0.000 C 
ATOM      7  O2' 0XU A 701      29.176   2.514   7.220  0.00  0.00    +0.000 OA
ATOM      8  C1' 0XU A 701      29.078   2.869   4.875  0.00  0.00    +0.000 C 
ENDROOT
BRANCH   8   9
ATOM      9  N9  0XU A 701      28.071   3.852   4.513  0.00  0.00    +0.000 N 
ATOM     10  C8  0XU A 701      28.072   4.766   3.489  0.00  0.00    +0.000 C 
ATOM     11  N7  0XU A 701      26.905   5.413   3.396  0.00  0.00    +0.000 NA
ATOM     12  C5  0XU A 701      26.119   4.872   4.412  0.00  0.00    +0.000 C 
ATOM     13  C6  0XU A 701      24.843   5.138   4.896  0.00  0.00    +0.000 C 
ATOM     14  N6  0XU A 701      23.981   6.123   4.323  0.00  0.00    +0.000 NA
ATOM     15  N1  0XU A 701      24.389   4.397   5.932  0.00  0.00    +0.000 NA
ATOM     16  C2  0XU A 701      25.191   3.470   6.512  0.00  0.00    +0.000 C 
ATOM     17  N3  0XU A 701      26.447   3.137   6.151  0.00  0.00    +0.000 NA
ATOM     18  C4  0XU A 701      26.844   3.896   5.106  0.00  0.00    +0.000 C 
ENDBRANCH   8   9
BRANCH   1  19
ATOM     19  CD  0XU A 701      28.970  -1.627   3.306  0.00  0.00    +0.000 C 
ATOM     20  NE  0XU A 701      30.185  -2.303   3.821  0.00  0.00    +0.000 NA
BRANCH  19  21
ATOM     21  CG  0XU A 701      27.697  -1.835   4.146  0.00  0.00    +0.000 C 
BRANCH  21  22
ATOM     22  CB  0XU A 701      26.508  -1.143   3.475  0.00  0.00    +0.000 C 
BRANCH  22  24
ATOM     23  N   0XU A 701      25.486   0.268   5.323  0.00  0.00    +0.000 NA
ATOM     24  CA  0XU A 701      26.112   0.248   3.995  0.00  0.00    +0.000 C 
BRANCH  24  25
ATOM     25  C   0XU A 701      25.290   1.055   3.008  0.00  0.00    +0.000 C 
ATOM     26  O   0XU A 701      24.216   1.649   3.616  0.00  0.00    +0.000 OA
ATOM     27  OXT 0XU A 701      25.542   1.164   1.809  0.00  0.00    +0.000 OA
ENDBRANCH  24  25
ENDBRANCH  22  24
ENDBRANCH  21  22
ENDBRANCH  19  21
ENDBRANCH   1  19
TORSDOF 6
ENDMDL
MODEL 5
REMARK VINA RESULT:      -6.4      1.778      3.171
REMARK  Name = ligand_pdbs\0XU.pdb
REMARK  6 active torsions:
REMARK  status: ('A' for Active; 'I' for Inactive)
REMARK    1  A    between atoms: CA_2  and  C_3
REMARK    2  A    between atoms: CA_2  and  CB_6
REMARK    3  A    between atoms: CB_6  and  CG_7
REMARK    4  A    between atoms: CG_7  and  CD_8
REMARK    5  A    between atoms: CD_8  and  C5'_10
REMARK    6  A    between atoms: C1'_17  and  N9_18
REMARK                            x       y       z     vdW  Elec       q    Type
REMARK                         _______ _______ _______ _____ _____    ______ ____
ROOT
ATOM      1  C5' 0XU A 701      26.746  -0.493   5.508  0.00  0.00    +0.000 C 
ATOM      2  C4' 0XU A 701      26.157   0.169   4.512  0.00  0.00    +0.000 C 
ATOM      3  O4' 0XU A 701      25.072   0.957   4.812  0.00  0.00    +0.000 OA
ATOM      4  C3' 0XU A 701      26.488   0.180   3.053  0.00  0.00    +0.000 C 
ATOM      5  O3' 0XU A 701      25.633  -0.753   2.413  0.00  0.00    +0.000 OA
ATOM      6  C2' 0XU A 701      26.044   1.594   2.701  0.00  0.00    +0.000 C 
ATOM      7  O2' 0XU A 701      25.481   1.730   1.404  0.00  0.00    +0.000 OA
ATOM      8  C1' 0XU A 701      24.938   1.854   3.711  0.00  0.00    +0.000 C 
ENDROOT
BRANCH   8   9
ATOM      9  N9  0XU A 701      24.865   3.227   4.182  0.00  0.00    +0.000 N 
ATOM     10  C8  0XU A 701      23.846   3.872   4.837  0.00  0.00    +0.000 C 
ATOM     11  N7  0XU A 701      24.201   5.101   5.226  0.00  0.00    +0.000 NA
ATOM     12  C5  0XU A 701      25.521   5.238   4.802  0.00  0.00    +0.000 C 
ATOM     13  C6  0XU A 701      26.447   6.277   4.830  0.00  0.00    +0.000 C 
ATOM     14  N6  0XU A 701      26.175   7.546   5.426  0.00  0.00    +0.000 NA
ATOM     15  N1  0XU A 701      27.672   6.052   4.305  0.00  0.00    +0.000 NA
ATOM     16  C2  0XU A 701      27.953   4.864   3.712  0.00  0.00    +0.000 C 
ATOM     17  N3  0XU A 701      27.139   3.794   3.602  0.00  0.00    +0.000 NA
ATOM     18  C4  0XU A 701      25.937   4.068   4.154  0.00  0.00    +0.000 C 
ENDBRANCH   8   9
BRANCH   1  19
ATOM     19  CD  0XU A 701      27.993  -1.327   5.510  0.00  0.00    +0.000 C 
ATOM     20  NE  0XU A 701      27.803  -2.509   4.635  0.00  0.00    +0.000 NA
BRANCH  19  21
ATOM     21  CG  0XU A 701      29.184  -0.423   5.144  0.00  0.00    +0.000 C 
BRANCH  21  22
ATOM     22  CB  0XU A 701      29.412   0.615   6.245  0.00  0.00    +0.000 C 
BRANCH  22  24
ATOM     23  N   0XU A 701      30.746   2.723   5.768  0.00  0.00    +0.000 NA
ATOM     24  CA  0XU A 701      29.420   2.096   5.833  0.00  0.00    +0.000 C 
BRANCH  24  25
ATOM     25  C   0XU A 701      28.464   2.957   6.637  0.00  0.00    +0.000 C 
ATOM     26  O   0XU A 701      29.098   4.047   7.171  0.00  0.00    +0.000 OA
ATOM     27  OXT 0XU A 701      27.270   2.712   6.802  0.00  0.00    +0.000 OA
ENDBRANCH  24  25
ENDBRANCH  22  24
ENDBRANCH  21  22
ENDBRANCH  19  21
ENDBRANCH   1  19
TORSDOF 6
ENDMDL
MODEL 6
REMARK VINA RESULT:      -6.2      1.993      3.334
REMARK  Name = ligand_pdbs\0XU.pdb
REMARK  6 active torsions:
REMARK  status: ('A' for Active; 'I' for Inactive)
REMARK    1  A    between atoms: CA_2  and  C_3
REMARK    2  A    between atoms: CA_2  and  CB_6
REMARK    3  A    between atoms: CB_6  and  CG_7
REMARK    4  A    between atoms: CG_7  and  CD_8
REMARK    5  A    between atoms: CD_8  and  C5'_10
REMARK    6  A    between atoms: C1'_17  and  N9_18
REMARK                            x       y       z     vdW  Elec       q    Type
REMARK                         _______ _______ _______ _____ _____    ______ ____
ROOT
ATOM      1  C5' 0XU A 701      29.133   0.037   3.199  0.00  0.00    +0.000 C 
ATOM      2  C4' 0XU A 701      29.150   1.051   4.064  0.00  0.00    +0.000 C 
ATOM      3  O4' 0XU A 701      28.880   2.312   3.588  0.00  0.00    +0.000 OA
ATOM      4  C3' 0XU A 701      29.446   1.043   5.531  0.00  0.00    +0.000 C 
ATOM      5  O3' 0XU A 701      30.810   1.396   5.694  0.00  0.00    +0.000 OA
ATOM      6  C2' 0XU A 701      28.567   2.204   5.976  0.00  0.00    +0.000 C 
ATOM      7  O2' 0XU A 701      29.107   2.981   7.035  0.00  0.00    +0.000 OA
ATOM      8  C1' 0XU A 701      28.529   3.084   4.736  0.00  0.00    +0.000 C 
ENDROOT
BRANCH   8   9
ATOM      9  N9  0XU A 701      27.264   3.765   4.521  0.00  0.00    +0.000 N 
ATOM     10  C8  0XU A 701      26.039   3.246   4.183  0.00  0.00    +0.000 C 
ATOM     11  N7  0XU A 701      25.079   4.178   4.204  0.00  0.00    +0.000 NA
ATOM     12  C5  0XU A 701      25.731   5.349   4.585  0.00  0.00    +0.000 C 
ATOM     13  C6  0XU A 701      25.336   6.674   4.734  0.00  0.00    +0.000 C 
ATOM     14  N6  0XU A 701      23.991   7.113   4.538  0.00  0.00    +0.000 NA
ATOM     15  N1  0XU A 701      26.266   7.574   5.125  0.00  0.00    +0.000 NA
ATOM     16  C2  0XU A 701      27.556   7.192   5.298  0.00  0.00    +0.000 C 
ATOM     17  N3  0XU A 701      28.065   5.951   5.163  0.00  0.00    +0.000 NA
ATOM     18  C4  0XU A 701      27.093   5.091   4.786  0.00  0.00    +0.000 C 
ENDBRANCH   8   9
BRANCH   1  19
ATOM     19  CD  0XU A 701      29.275  -1.437   3.434  0.00  0.00    +0.000 C 
ATOM     20  NE  0XU A 701      30.647  -1.736   3.909  0.00  0.00    +0.000 NA
BRANCH  19  21
ATOM     21  CG  0XU A 701      28.142  -1.892   4.372  0.00  0.00    +0.000 C 
BRANCH  21  22
ATOM     22  CB  0XU A 701      26.785  -1.500   3.783  0.00  0.00    +0.000 C 
BRANCH  22  24
ATOM     23  N   0XU A 701      25.603   0.111   5.352  0.00  0.00    +0.000 NA
ATOM     24  CA  0XU A 701      26.276  -0.076   4.060  0.00  0.00    +0.000 C 
BRANCH  24  25
ATOM     25  C   0XU A 701      25.437   0.501   2.936  0.00  0.00    +0.000 C 
ATOM     26  O   0XU A 701      24.147   0.726   3.336  0.00  0.00    +0.000 OA
ATOM     27  OXT 0XU A 701      25.851   0.735   1.801  0.00  0.00    +0.000 OA
ENDBRANCH  24  25
ENDBRANCH  22  24
ENDBRANCH  21  22
ENDBRANCH  19  21
ENDBRANCH   1  19
TORSDOF 6
ENDMDL
MODEL 7
REMARK VINA RESULT:      -5.9      2.085      6.645
REMARK  Name = ligand_pdbs\0XU.pdb
REMARK  6 active torsions:
REMARK  status: ('A' for Active; 'I' for Inactive)
REMARK    1  A    between atoms: CA_2  and  C_3
REMARK    2  A    between atoms: CA_2  and  CB_6
REMARK    3  A    between atoms: CB_6  and  CG_7
REMARK    4  A    between atoms: CG_7  and  CD_8
REMARK    5  A    between atoms: CD_8  and  C5'_10
REMARK    6  A    between atoms: C1'_17  and  N9_18
REMARK                            x       y       z     vdW  Elec       q    Type
REMARK                         _______ _______ _______ _____ _____    ______ ____
ROOT
ATOM      1  C5' 0XU A 701      26.280   5.122   3.409  0.00  0.00    +0.000 C 
ATOM      2  C4' 0XU A 701      25.897   3.854   3.553  0.00  0.00    +0.000 C 
ATOM      3  O4' 0XU A 701      26.355   2.932   2.641  0.00  0.00    +0.000 OA
ATOM      4  C3' 0XU A 701      24.995   3.245   4.580  0.00  0.00    +0.000 C 
ATOM      5  O3' 0XU A 701      23.698   3.160   4.013  0.00  0.00    +0.000 OA
ATOM      6  C2' 0XU A 701      25.603   1.851   4.659  0.00  0.00    +0.000 C 
ATOM      7  O2' 0XU A 701      24.663   0.808   4.878  0.00  0.00    +0.000 OA
ATOM      8  C1' 0XU A 701      26.180   1.661   3.265  0.00  0.00    +0.000 C 
ENDROOT
BRANCH   8   9
ATOM      9  N9  0XU A 701      27.419   0.902   3.225  0.00  0.00    +0.000 N 
ATOM     10  C8  0XU A 701      28.706   1.340   3.035  0.00  0.00    +0.000 C 
ATOM     11  N7  0XU A 701      29.597   0.356   3.195  0.00  0.00    +0.000 NA
ATOM     12  C5  0XU A 701      28.832  -0.764   3.513  0.00  0.00    +0.000 C 
ATOM     13  C6  0XU A 701      29.125  -2.106   3.737  0.00  0.00    +0.000 C 
ATOM     14  N6  0XU A 701      30.454  -2.627   3.721  0.00  0.00    +0.000 NA
ATOM     15  N1  0XU A 701      28.100  -2.940   4.024  0.00  0.00    +0.000 NA
ATOM     16  C2  0XU A 701      26.824  -2.480   4.025  0.00  0.00    +0.000 C 
ATOM     17  N3  0XU A 701      26.412  -1.215   3.802  0.00  0.00    +0.000 NA
ATOM     18  C4  0XU A 701      27.474  -0.424   3.535  0.00  0.00    +0.000 C 
ENDBRANCH   8   9
BRANCH   1  19
ATOM     19  CD  0XU A 701      26.040   6.311   4.292  0.00  0.00    +0.000 C 
ATOM     20  NE  0XU A 701      24.599   6.395   4.633  0.00  0.00    +0.000 NA
BRANCH  19  21
ATOM     21  CG  0XU A 701      26.996   6.224   5.495  0.00  0.00    +0.000 C 
BRANCH  21  22
ATOM     22  CB  0XU A 701      27.998   5.087   5.287  0.00  0.00    +0.000 C 
BRANCH  22  24
ATOM     23  N   0XU A 701      27.133   3.917   7.370  0.00  0.00    +0.000 NA
ATOM     24  CA  0XU A 701      27.746   3.772   6.043  0.00  0.00    +0.000 C 
BRANCH  24  25
ATOM     25  C   0XU A 701      28.962   2.868   6.115  0.00  0.00    +0.000 C 
ATOM     26  O   0XU A 701      28.626   1.605   6.525  0.00  0.00    +0.000 OA
ATOM     27  OXT 0XU A 701      30.112   3.216   5.850  0.00  0.00    +0.000 OA
ENDBRANCH  24  25
ENDBRANCH  22  24
ENDBRANCH  21  22
ENDBRANCH  19  21
ENDBRANCH   1  19
TORSDOF 6
ENDMDL
MODEL 8
REMARK VINA RESULT:      -5.9      4.328      9.148
REMARK  Name = ligand_pdbs\0XU.pdb
REMARK  6 active torsions:
REMARK  status: ('A' for Active; 'I' for Inactive)
REMARK    1  A    between atoms: CA_2  and  C_3
REMARK    2  A    between atoms: CA_2  and  CB_6
REMARK    3  A    between atoms: CB_6  and  CG_7
REMARK    4  A    between atoms: CG_7  and  CD_8
REMARK    5  A    between atoms: CD_8  and  C5'_10
REMARK    6  A    between atoms: C1'_17  and  N9_18
REMARK                            x       y       z     vdW  Elec       q    Type
REMARK                         _______ _______ _______ _____ _____    ______ ____
ROOT
ATOM      1  C5' 0XU A 701      25.899   8.324   5.497  0.00  0.00    +0.000 C 
ATOM      2  C4' 0XU A 701      25.833   7.103   4.964  0.00  0.00    +0.000 C 
ATOM      3  O4' 0XU A 701      27.013   6.477   4.637  0.00  0.00    +0.000 OA
ATOM      4  C3' 0XU A 701      24.632   6.275   4.633  0.00  0.00    +0.000 C 
ATOM      5  O3' 0XU A 701      24.350   6.462   3.256  0.00  0.00    +0.000 OA
ATOM      6  C2' 0XU A 701      25.216   4.884   4.843  0.00  0.00    +0.000 C 
ATOM      7  O2' 0XU A 701      24.722   3.895   3.950  0.00  0.00    +0.000 OA
ATOM      8  C1' 0XU A 701      26.689   5.092   4.528  0.00  0.00    +0.000 C 
ENDROOT
BRANCH   8   9
ATOM      9  N9  0XU A 701      27.595   4.294   5.337  0.00  0.00    +0.000 N 
ATOM     10  C8  0XU A 701      27.996   4.477   6.637  0.00  0.00    +0.000 C 
ATOM     11  N7  0XU A 701      28.738   3.457   7.079  0.00  0.00    +0.000 NA
ATOM     12  C5  0XU A 701      28.803   2.574   6.003  0.00  0.00    +0.000 C 
ATOM     13  C6  0XU A 701      29.459   1.369   5.775  0.00  0.00    +0.000 C 
ATOM     14  N6  0XU A 701      30.255   0.716   6.765  0.00  0.00    +0.000 NA
ATOM     15  N1  0XU A 701      29.296   0.774   4.572  0.00  0.00    +0.000 NA
ATOM     16  C2  0XU A 701      28.564   1.380   3.604  0.00  0.00    +0.000 C 
ATOM     17  N3  0XU A 701      27.902   2.552   3.694  0.00  0.00    +0.000 NA
ATOM     18  C4  0XU A 701      28.087   3.094   4.917  0.00  0.00    +0.000 C 
ENDBRANCH   8   9
BRANCH   1  19
ATOM     19  CD  0XU A 701      24.811   9.197   6.049  0.00  0.00    +0.000 C 
ATOM     20  NE  0XU A 701      23.489   8.597   5.748  0.00  0.00    +0.000 NA
BRANCH  19  21
ATOM     21  CG  0XU A 701      25.096   9.443   7.541  0.00  0.00    +0.000 C 
BRANCH  21  22
ATOM     22  CB  0XU A 701      23.933  10.209   8.177  0.00  0.00    +0.000 C 
BRANCH  22  24
ATOM     23  N   0XU A 701      23.629  10.202  10.699  0.00  0.00    +0.000 NA
ATOM     24  CA  0XU A 701      24.190  10.892   9.530  0.00  0.00    +0.000 C 
BRANCH  24  25
ATOM     25  C   0XU A 701      23.816  12.362   9.551  0.00  0.00    +0.000 C 
ATOM     26  O   0XU A 701      23.065  12.674  10.652  0.00  0.00    +0.000 OA
ATOM     27  OXT 0XU A 701      24.136  13.179   8.689  0.00  0.00    +0.000 OA
ENDBRANCH  24  25
ENDBRANCH  22  24
ENDBRANCH  21  22
ENDBRANCH  19  21
ENDBRANCH   1  19
TORSDOF 6
ENDMDL
MODEL 9
REMARK VINA RESULT:      -5.9      2.307      7.040
REMARK  Name = ligand_pdbs\0XU.pdb
REMARK  6 active torsions:
REMARK  status: ('A' for Active; 'I' for Inactive)
REMARK    1  A    between atoms: CA_2  and  C_3
REMARK    2  A    between atoms: CA_2  and  CB_6
REMARK    3  A    between atoms: CB_6  and  CG_7
REMARK    4  A    between atoms: CG_7  and  CD_8
REMARK    5  A    between atoms: CD_8  and  C5'_10
REMARK    6  A    between atoms: C1'_17  and  N9_18
REMARK                            x       y       z     vdW  Elec       q    Type
REMARK                         _______ _______ _______ _____ _____    ______ ____
ROOT
ATOM      1  C5' 0XU A 701      25.483   3.669   3.985  0.00  0.00    +0.000 C 
ATOM      2  C4' 0XU A 701      25.705   2.393   3.668  0.00  0.00    +0.000 C 
ATOM      3  O4' 0XU A 701      26.950   2.050   3.197  0.00  0.00    +0.000 OA
ATOM      4  C3' 0XU A 701      24.772   1.225   3.726  0.00  0.00    +0.000 C 
ATOM      5  O3' 0XU A 701      24.231   1.044   2.428  0.00  0.00    +0.000 OA
ATOM      6  C2' 0XU A 701      25.772   0.113   4.016  0.00  0.00    +0.000 C 
ATOM      7  O2' 0XU A 701      25.463  -1.132   3.406  0.00  0.00    +0.000 OA
ATOM      8  C1' 0XU A 701      27.045   0.637   3.370  0.00  0.00    +0.000 C 
ENDROOT
BRANCH   8   9
ATOM      9  N9  0XU A 701      28.265   0.294   4.080  0.00  0.00    +0.000 N 
ATOM     10  C8  0XU A 701      29.111  -0.772   3.898  0.00  0.00    +0.000 C 
ATOM     11  N7  0XU A 701      30.206  -0.676   4.659  0.00  0.00    +0.000 NA
ATOM     12  C5  0XU A 701      30.049   0.521   5.354  0.00  0.00    +0.000 C 
ATOM     13  C6  0XU A 701      30.783   1.173   6.340  0.00  0.00    +0.000 C 
ATOM     14  N6  0XU A 701      32.022   0.676   6.846  0.00  0.00    +0.000 NA
ATOM     15  N1  0XU A 701      30.315   2.353   6.805  0.00  0.00    +0.000 NA
ATOM     16  C2  0XU A 701      29.129   2.841   6.360  0.00  0.00    +0.000 C 
ATOM     17  N3  0XU A 701      28.320   2.295   5.430  0.00  0.00    +0.000 NA
ATOM     18  C4  0XU A 701      28.841   1.128   4.991  0.00  0.00    +0.000 C 
ENDBRANCH   8   9
BRANCH   1  19
ATOM     19  CD  0XU A 701      24.286   4.315   4.616  0.00  0.00    +0.000 C 
ATOM     20  NE  0XU A 701      24.282   4.042   6.074  0.00  0.00    +0.000 NA
BRANCH  19  21
ATOM     21  CG  0XU A 701      24.276   5.805   4.227  0.00  0.00    +0.000 C 
BRANCH  21  22
ATOM     22  CB  0XU A 701      25.642   6.210   3.670  0.00  0.00    +0.000 C 
BRANCH  22  24
ATOM     23  N   0XU A 701      27.158   6.395   5.699  0.00  0.00    +0.000 NA
ATOM     24  CA  0XU A 701      26.540   7.084   4.559  0.00  0.00    +0.000 C 
BRANCH  24  25
ATOM     25  C   0XU A 701      25.879   8.372   5.013  0.00  0.00    +0.000 C 
ATOM     26  O   0XU A 701      25.992   9.355   4.067  0.00  0.00    +0.000 OA
ATOM     27  OXT 0XU A 701      25.316   8.528   6.096  0.00  0.00    +0.000 OA
ENDBRANCH  24  25
ENDBRANCH  22  24
ENDBRANCH  21  22
ENDBRANCH  19  21
ENDBRANCH   1  19
TORSDOF 6
ENDMDL
