MODEL 1
REMARK VINA RESULT:      -8.0      0.000      0.000
REMARK  Name = ligand_pdbs\17H.pdb
REMARK  2 active torsions:
REMARK  status: ('A' for Active; 'I' for Inactive)
REMARK    1  A    between atoms: C13_13  and  C18_18
REMARK    2  A    between atoms: C17_17  and  C20_21
REMARK                            x       y       z     vdW  Elec       q    Type
REMARK                         _______ _______ _______ _____ _____    ______ ____
ROOT
ATOM      1  C2  17H A1001      27.364   6.937   4.922  0.00  0.00    +0.000 A 
ATOM      2  C4  17H A1001      24.903   6.215   5.332  0.00  0.00    +0.000 A 
ATOM      3  C7  17H A1001      24.925   2.409   4.826  0.00  0.00    +0.000 C 
ATOM      4  C6  17H A1001      24.494   3.670   5.597  0.00  0.00    +0.000 C 
ATOM      5  C9  17H A1001      27.332   3.199   4.937  0.00  0.00    +0.000 C 
ATOM      6  C11 17H A1001      28.747   2.829   4.458  0.00  0.00    +0.000 C 
ATOM      7  C1  17H A1001      27.840   5.635   4.628  0.00  0.00    +0.000 A 
ATOM      8  C3  17H A1001      25.938   7.115   5.048  0.00  0.00    +0.000 A 
ATOM      9  C5  17H A1001      25.399   4.887   5.329  0.00  0.00    +0.000 A 
ATOM     10  C8  17H A1001      26.370   1.995   5.264  0.00  0.00    +0.000 C 
ATOM     11  C10 17H A1001      26.870   4.530   5.008  0.00  0.00    +0.000 A 
ATOM     12  C12 17H A1001      29.235   1.521   4.294  0.00  0.00    +0.000 C 
ATOM     13  C13 17H A1001      28.361   0.354   4.651  0.00  0.00    +0.000 C 
ATOM     14  C14 17H A1001      26.881   0.789   4.421  0.00  0.00    +0.000 C 
ATOM     15  C15 17H A1001      26.030  -0.491   4.519  0.00  0.00    +0.000 C 
ATOM     16  C16 17H A1001      27.022  -1.504   3.873  0.00  0.00    +0.000 C 
ATOM     17  C17 17H A1001      28.458  -0.840   3.736  0.00  0.00    +0.000 C 
ATOM     18  O3  17H A1001      25.527   8.458   4.898  0.00  0.00    +0.000 OA
ATOM     19  O17 17H A1001      29.484  -1.695   4.310  0.00  0.00    +0.000 OA
ENDROOT
BRANCH  13  20
ATOM     20  C18 17H A1001      28.513   0.093   6.266  0.00  0.00    +0.000 C 
ATOM     21  C22 17H A1001      29.931   0.346   7.009  0.00  0.00    +0.000 C 
ENDBRANCH  13  20
BRANCH  17  23
ATOM     22  C21 17H A1001      30.182  -0.364   1.988  0.00  0.00    +0.000 C 
ATOM     23  C20 17H A1001      28.588  -0.507   2.247  0.00  0.00    +0.000 C 
ENDBRANCH  17  23
TORSDOF 2
ENDMDL
MODEL 2
REMARK VINA RESULT:      -7.1      1.367      3.251
REMARK  Name = ligand_pdbs\17H.pdb
REMARK  2 active torsions:
REMARK  status: ('A' for Active; 'I' for Inactive)
REMARK    1  A    between atoms: C13_13  and  C18_18
REMARK    2  A    between atoms: C17_17  and  C20_21
REMARK                            x       y       z     vdW  Elec       q    Type
REMARK                         _______ _______ _______ _____ _____    ______ ____
ROOT
ATOM      1  C2  17H A1001      23.925   6.059   5.043  0.00  0.00    +0.000 A 
ATOM      2  C4  17H A1001      26.285   7.026   4.548  0.00  0.00    +0.000 A 
ATOM      3  C7  17H A1001      28.528   3.932   4.179  0.00  0.00    +0.000 C 
ATOM      4  C6  17H A1001      28.060   5.327   3.725  0.00  0.00    +0.000 C 
ATOM      5  C9  17H A1001      26.114   3.154   4.183  0.00  0.00    +0.000 C 
ATOM      6  C11 17H A1001      25.240   1.936   4.525  0.00  0.00    +0.000 C 
ATOM      7  C1  17H A1001      24.329   4.701   5.021  0.00  0.00    +0.000 A 
ATOM      8  C3  17H A1001      24.960   7.063   5.000  0.00  0.00    +0.000 A 
ATOM      9  C5  17H A1001      26.654   5.693   4.237  0.00  0.00    +0.000 A 
ATOM     10  C8  17H A1001      27.552   2.843   3.618  0.00  0.00    +0.000 C 
ATOM     11  C10 17H A1001      25.709   4.483   4.428  0.00  0.00    +0.000 A 
ATOM     12  C12 17H A1001      25.622   0.591   4.376  0.00  0.00    +0.000 C 
ATOM     13  C13 17H A1001      26.964   0.263   3.788  0.00  0.00    +0.000 C 
ATOM     14  C14 17H A1001      27.932   1.430   4.151  0.00  0.00    +0.000 C 
ATOM     15  C15 17H A1001      29.350   0.949   3.790  0.00  0.00    +0.000 C 
ATOM     16  C16 17H A1001      29.208  -0.558   4.161  0.00  0.00    +0.000 C 
ATOM     17  C17 17H A1001      27.679  -0.912   4.405  0.00  0.00    +0.000 C 
ATOM     18  O3  17H A1001      24.531   8.328   5.462  0.00  0.00    +0.000 OA
ATOM     19  O17 17H A1001      27.282  -2.071   3.624  0.00  0.00    +0.000 OA
ENDROOT
BRANCH  13  20
ATOM     20  C18 17H A1001      26.811   0.291   2.152  0.00  0.00    +0.000 C 
ATOM     21  C22 17H A1001      25.479   0.904   1.462  0.00  0.00    +0.000 C 
ENDBRANCH  13  20
BRANCH  17  23
ATOM     22  C21 17H A1001      28.898  -0.346   6.514  0.00  0.00    +0.000 C 
ATOM     23  C20 17H A1001      27.547  -1.024   5.926  0.00  0.00    +0.000 C 
ENDBRANCH  17  23
TORSDOF 2
ENDMDL
MODEL 3
REMARK VINA RESULT:      -6.3      1.489      6.760
REMARK  Name = ligand_pdbs\17H.pdb
REMARK  2 active torsions:
REMARK  status: ('A' for Active; 'I' for Inactive)
REMARK    1  A    between atoms: C13_13  and  C18_18
REMARK    2  A    between atoms: C17_17  and  C20_21
REMARK                            x       y       z     vdW  Elec       q    Type
REMARK                         _______ _______ _______ _____ _____    ______ ____
ROOT
ATOM      1  C2  17H A1001      27.878  -1.923   3.217  0.00  0.00    +0.000 A 
ATOM      2  C4  17H A1001      29.906  -1.187   4.663  0.00  0.00    +0.000 A 
ATOM      3  C7  17H A1001      29.145   2.460   5.592  0.00  0.00    +0.000 C 
ATOM      4  C6  17H A1001      29.633   1.045   5.952  0.00  0.00    +0.000 C 
ATOM      5  C9  17H A1001      27.044   1.451   4.593  0.00  0.00    +0.000 C 
ATOM      6  C11 17H A1001      25.763   1.838   3.835  0.00  0.00    +0.000 C 
ATOM      7  C1  17H A1001      27.212  -0.673   3.272  0.00  0.00    +0.000 A 
ATOM      8  C3  17H A1001      29.220  -1.988   3.742  0.00  0.00    +0.000 A 
ATOM      9  C5  17H A1001      29.137  -0.037   4.974  0.00  0.00    +0.000 A 
ATOM     10  C8  17H A1001      27.580   2.502   5.637  0.00  0.00    +0.000 C 
ATOM     11  C10 17H A1001      27.764   0.267   4.329  0.00  0.00    +0.000 A 
ATOM     12  C12 17H A1001      25.049   3.037   4.000  0.00  0.00    +0.000 C 
ATOM     13  C13 17H A1001      25.502   4.034   5.027  0.00  0.00    +0.000 C 
ATOM     14  C14 17H A1001      27.049   3.890   5.168  0.00  0.00    +0.000 C 
ATOM     15  C15 17H A1001      27.526   5.093   6.002  0.00  0.00    +0.000 C 
ATOM     16  C16 17H A1001      26.536   6.175   5.474  0.00  0.00    +0.000 C 
ATOM     17  C17 17H A1001      25.381   5.483   4.631  0.00  0.00    +0.000 C 
ATOM     18  O3  17H A1001      29.954  -3.097   3.264  0.00  0.00    +0.000 OA
ATOM     19  O17 17H A1001      24.071   5.910   5.094  0.00  0.00    +0.000 OA
ENDROOT
BRANCH  13  20
ATOM     20  C18 17H A1001      24.870   3.581   6.475  0.00  0.00    +0.000 C 
ATOM     21  C22 17H A1001      25.824   3.432   7.777  0.00  0.00    +0.000 C 
ENDBRANCH  13  20
BRANCH  17  23
ATOM     22  C21 17H A1001      25.572   7.395   3.031  0.00  0.00    +0.000 C 
ATOM     23  C20 17H A1001      25.732   5.788   3.173  0.00  0.00    +0.000 C 
ENDBRANCH  17  23
TORSDOF 2
ENDMDL
MODEL 4
REMARK VINA RESULT:      -6.0      1.357      2.742
REMARK  Name = ligand_pdbs\17H.pdb
REMARK  2 active torsions:
REMARK  status: ('A' for Active; 'I' for Inactive)
REMARK    1  A    between atoms: C13_13  and  C18_18
REMARK    2  A    between atoms: C17_17  and  C20_21
REMARK                            x       y       z     vdW  Elec       q    Type
REMARK                         _______ _______ _______ _____ _____    ______ ____
ROOT
ATOM      1  C2  17H A1001      25.609   6.309   3.250  0.00  0.00    +0.000 A 
ATOM      2  C4  17H A1001      26.824   6.850   5.481  0.00  0.00    +0.000 A 
ATOM      3  C7  17H A1001      28.249   3.478   6.638  0.00  0.00    +0.000 C 
ATOM      4  C6  17H A1001      28.377   4.995   6.410  0.00  0.00    +0.000 C 
ATOM      5  C9  17H A1001      27.453   3.213   4.245  0.00  0.00    +0.000 C 
ATOM      6  C11 17H A1001      26.933   2.155   3.257  0.00  0.00    +0.000 C 
ATOM      7  C1  17H A1001      25.896   4.921   3.274  0.00  0.00    +0.000 A 
ATOM      8  C3  17H A1001      25.927   7.076   4.429  0.00  0.00    +0.000 A 
ATOM      9  C5  17H A1001      27.366   5.544   5.385  0.00  0.00    +0.000 A 
ATOM     10  C8  17H A1001      28.520   2.721   5.295  0.00  0.00    +0.000 C 
ATOM     11  C10 17H A1001      26.961   4.534   4.285  0.00  0.00    +0.000 A 
ATOM     12  C12 17H A1001      27.330   0.807   3.222  0.00  0.00    +0.000 C 
ATOM     13  C13 17H A1001      28.385   0.321   4.173  0.00  0.00    +0.000 C 
ATOM     14  C14 17H A1001      28.288   1.189   5.465  0.00  0.00    +0.000 C 
ATOM     15  C15 17H A1001      29.174   0.502   6.521  0.00  0.00    +0.000 C 
ATOM     16  C16 17H A1001      28.914  -0.986   6.138  0.00  0.00    +0.000 C 
ATOM     17  C17 17H A1001      28.173  -1.061   4.735  0.00  0.00    +0.000 C 
ATOM     18  O3  17H A1001      25.230   8.303   4.502  0.00  0.00    +0.000 OA
ATOM     19  O17 17H A1001      28.862  -1.966   3.830  0.00  0.00    +0.000 OA
ENDROOT
BRANCH  13  20
ATOM     20  C18 17H A1001      29.849   0.659   3.507  0.00  0.00    +0.000 C 
ATOM     21  C22 17H A1001      30.250   0.057   2.057  0.00  0.00    +0.000 C 
ENDBRANCH  13  20
BRANCH  17  23
ATOM     22  C21 17H A1001      26.469  -2.867   4.433  0.00  0.00    +0.000 C 
ATOM     23  C20 17H A1001      26.722  -1.403   5.083  0.00  0.00    +0.000 C 
ENDBRANCH  17  23
TORSDOF 2
ENDMDL
