MODEL 1
REMARK VINA RESULT:      -7.3      0.000      0.000
REMARK  Name = ligand_pdbs\198.pdb
REMARK  7 active torsions:
REMARK  status: ('A' for Active; 'I' for Inactive)
REMARK    1  A    between atoms: C15_7  and  S14_8
REMARK    2  A    between atoms: S14_8  and  C13_11
REMARK    3  A    between atoms: C13_11  and  C11_12
REMARK    4  A    between atoms: C11_12  and  C10_15
REMARK    5  A    between atoms: N9_17  and  C1_18
REMARK    6  A    between atoms: C4_22  and  C8_23
REMARK    7  A    between atoms: C3_25  and  C7_26
REMARK                            x       y       z     vdW  Elec       q    Type
REMARK                         _______ _______ _______ _____ _____    ______ ____
ROOT
ATOM      1  C10 198 A 501      28.917   1.786   5.189  0.00  0.00    +0.000 C 
ATOM      2  O10 198 A 501      29.192   2.110   4.034  0.00  0.00    +0.000 OA
ATOM      3  N9  198 A 501      28.106   2.462   6.000  0.00  0.00    +0.000 NA
ENDROOT
BRANCH   3   4
ATOM      4  C1  198 A 501      27.571   3.659   5.756  0.00  0.00    +0.000 A 
ATOM      5  C2  198 A 501      26.212   3.855   5.518  0.00  0.00    +0.000 A 
ATOM      6  C6  198 A 501      28.437   4.738   5.627  0.00  0.00    +0.000 A 
ATOM      7  C5  198 A 501      27.937   5.987   5.274  0.00  0.00    +0.000 A 
ATOM      8  C4  198 A 501      26.577   6.168   5.040  0.00  0.00    +0.000 A 
ATOM      9  C3  198 A 501      25.686   5.095   5.149  0.00  0.00    +0.000 A 
BRANCH   9  10
ATOM     10  C7  198 A 501      24.174   5.211   4.874  0.00  0.00    +0.000 C 
ATOM     11  F7B 198 A 501      23.536   4.209   5.470  0.00  0.00    +0.000 F 
ATOM     12  F7C 198 A 501      23.622   6.345   5.299  0.00  0.00    +0.000 F 
ATOM     13  F7A 198 A 501      23.894   5.155   3.574  0.00  0.00    +0.000 F 
ENDBRANCH   9  10
BRANCH   8  14
ATOM     14  C8  198 A 501      26.165   7.500   4.712  0.00  0.00    +0.000 C 
ATOM     15  N8  198 A 501      25.838   8.562   4.468  0.00  0.00    +0.000 NA
ENDBRANCH   8  14
ENDBRANCH   3   4
BRANCH   1  16
ATOM     16  C11 198 A 501      29.403   0.453   5.762  0.00  0.00    +0.000 C 
ATOM     17  O11 198 A 501      28.429  -0.024   6.694  0.00  0.00    +0.000 OA
ATOM     18  C12 198 A 501      30.736   0.679   6.478  0.00  0.00    +0.000 C 
BRANCH  16  19
ATOM     19  C13 198 A 501      29.572  -0.576   4.640  0.00  0.00    +0.000 C 
BRANCH  19  20
ATOM     20  S14 198 A 501      28.039  -1.462   4.174  0.00  0.00    +0.000 S 
ATOM     21  O14 198 A 501      27.606  -2.365   5.291  0.00  0.00    +0.000 OA
ATOM     22  O15 198 A 501      28.286  -2.271   2.936  0.00  0.00    +0.000 OA
BRANCH  20  29
ATOM     23  C16 198 A 501      26.672   0.316   2.617  0.00  0.00    +0.000 A 
ATOM     24  C17 198 A 501      25.652   1.230   2.371  0.00  0.00    +0.000 A 
ATOM     25  C18 198 A 501      24.735   1.532   3.374  0.00  0.00    +0.000 A 
ATOM     26  F18 198 A 501      23.744   2.416   3.144  0.00  0.00    +0.000 F 
ATOM     27  C19 198 A 501      24.838   0.923   4.620  0.00  0.00    +0.000 A 
ATOM     28  C20 198 A 501      25.859   0.010   4.866  0.00  0.00    +0.000 A 
ATOM     29  C15 198 A 501      26.775  -0.294   3.865  0.00  0.00    +0.000 A 
ENDBRANCH  20  29
ENDBRANCH  19  20
ENDBRANCH  16  19
ENDBRANCH   1  16
TORSDOF 7
ENDMDL
MODEL 2
REMARK VINA RESULT:      -5.7      2.442      4.083
REMARK  Name = ligand_pdbs\198.pdb
REMARK  7 active torsions:
REMARK  status: ('A' for Active; 'I' for Inactive)
REMARK    1  A    between atoms: C15_7  and  S14_8
REMARK    2  A    between atoms: S14_8  and  C13_11
REMARK    3  A    between atoms: C13_11  and  C11_12
REMARK    4  A    between atoms: C11_12  and  C10_15
REMARK    5  A    between atoms: N9_17  and  C1_18
REMARK    6  A    between atoms: C4_22  and  C8_23
REMARK    7  A    between atoms: C3_25  and  C7_26
REMARK                            x       y       z     vdW  Elec       q    Type
REMARK                         _______ _______ _______ _____ _____    ______ ____
ROOT
ATOM      1  C10 198 A 501      26.530  -0.317   4.445  0.00  0.00    +0.000 C 
ATOM      2  O10 198 A 501      26.568  -0.051   5.646  0.00  0.00    +0.000 OA
ATOM      3  N9  198 A 501      26.227   0.548   3.480  0.00  0.00    +0.000 NA
ENDROOT
BRANCH   3   4
ATOM      4  C1  198 A 501      25.784   1.794   3.653  0.00  0.00    +0.000 A 
ATOM      5  C2  198 A 501      26.568   2.924   3.430  0.00  0.00    +0.000 A 
ATOM      6  C6  198 A 501      24.511   1.957   4.190  0.00  0.00    +0.000 A 
ATOM      7  C5  198 A 501      24.043   3.233   4.482  0.00  0.00    +0.000 A 
ATOM      8  C4  198 A 501      24.838   4.353   4.253  0.00  0.00    +0.000 A 
ATOM      9  C3  198 A 501      26.127   4.216   3.727  0.00  0.00    +0.000 A 
BRANCH   9  10
ATOM     10  C7  198 A 501      27.077   5.403   3.476  0.00  0.00    +0.000 C 
ATOM     11  F7B 198 A 501      26.455   6.321   2.742  0.00  0.00    +0.000 F 
ATOM     12  F7C 198 A 501      27.512   6.003   4.581  0.00  0.00    +0.000 F 
ATOM     13  F7A 198 A 501      28.177   5.037   2.823  0.00  0.00    +0.000 F 
ENDBRANCH   9  10
BRANCH   8  14
ATOM     14  C8  198 A 501      24.247   5.620   4.562  0.00  0.00    +0.000 C 
ATOM     15  N8  198 A 501      23.784   6.626   4.823  0.00  0.00    +0.000 NA
ENDBRANCH   8  14
ENDBRANCH   3   4
BRANCH   1  16
ATOM     16  C11 198 A 501      26.977  -1.689   3.935  0.00  0.00    +0.000 C 
ATOM     17  O11 198 A 501      25.826  -2.394   3.463  0.00  0.00    +0.000 OA
ATOM     18  C12 198 A 501      27.618  -2.461   5.090  0.00  0.00    +0.000 C 
BRANCH  16  19
ATOM     19  C13 198 A 501      27.975  -1.528   2.785  0.00  0.00    +0.000 C 
BRANCH  19  20
ATOM     20  S14 198 A 501      29.696  -1.182   3.305  0.00  0.00    +0.000 S 
ATOM     21  O14 198 A 501      30.517  -0.764   2.121  0.00  0.00    +0.000 OA
ATOM     22  O15 198 A 501      30.289  -2.413   3.922  0.00  0.00    +0.000 OA
BRANCH  20  29
ATOM     23  C16 198 A 501      29.912  -0.158   5.826  0.00  0.00    +0.000 A 
ATOM     24  C17 198 A 501      29.925   0.881   6.753  0.00  0.00    +0.000 A 
ATOM     25  C18 198 A 501      29.716   2.190   6.329  0.00  0.00    +0.000 A 
ATOM     26  F18 198 A 501      29.728   3.202   7.220  0.00  0.00    +0.000 F 
ATOM     27  C19 198 A 501      29.494   2.461   4.983  0.00  0.00    +0.000 A 
ATOM     28  C20 198 A 501      29.480   1.423   4.058  0.00  0.00    +0.000 A 
ATOM     29  C15 198 A 501      29.689   0.114   4.479  0.00  0.00    +0.000 A 
ENDBRANCH  20  29
ENDBRANCH  19  20
ENDBRANCH  16  19
ENDBRANCH   1  16
TORSDOF 7
ENDMDL
MODEL 3
REMARK VINA RESULT:      -5.4      1.745      2.356
REMARK  Name = ligand_pdbs\198.pdb
REMARK  7 active torsions:
REMARK  status: ('A' for Active; 'I' for Inactive)
REMARK    1  A    between atoms: C15_7  and  S14_8
REMARK    2  A    between atoms: S14_8  and  C13_11
REMARK    3  A    between atoms: C13_11  and  C11_12
REMARK    4  A    between atoms: C11_12  and  C10_15
REMARK    5  A    between atoms: N9_17  and  C1_18
REMARK    6  A    between atoms: C4_22  and  C8_23
REMARK    7  A    between atoms: C3_25  and  C7_26
REMARK                            x       y       z     vdW  Elec       q    Type
REMARK                         _______ _______ _______ _____ _____    ______ ____
ROOT
ATOM      1  C10 198 A 501      28.658   1.775   5.881  0.00  0.00    +0.000 C 
ATOM      2  O10 198 A 501      27.931   2.064   6.830  0.00  0.00    +0.000 OA
ATOM      3  N9  198 A 501      28.778   2.489   4.764  0.00  0.00    +0.000 NA
ENDROOT
BRANCH   3   4
ATOM      4  C1  198 A 501      28.042   3.549   4.427  0.00  0.00    +0.000 A 
ATOM      5  C2  198 A 501      28.132   4.780   5.072  0.00  0.00    +0.000 A 
ATOM      6  C6  198 A 501      27.061   3.370   3.457  0.00  0.00    +0.000 A 
ATOM      7  C5  198 A 501      26.202   4.417   3.143  0.00  0.00    +0.000 A 
ATOM      8  C4  198 A 501      26.305   5.642   3.795  0.00  0.00    +0.000 A 
ATOM      9  C3  198 A 501      27.273   5.844   4.785  0.00  0.00    +0.000 A 
BRANCH   9  10
ATOM     10  C7  198 A 501      27.426   7.160   5.572  0.00  0.00    +0.000 C 
ATOM     11  F7B 198 A 501      28.312   6.992   6.549  0.00  0.00    +0.000 F 
ATOM     12  F7C 198 A 501      27.830   8.195   4.840  0.00  0.00    +0.000 F 
ATOM     13  F7A 198 A 501      26.281   7.550   6.125  0.00  0.00    +0.000 F 
ENDBRANCH   9  10
BRANCH   8  14
ATOM     14  C8  198 A 501      25.390   6.660   3.374  0.00  0.00    +0.000 C 
ATOM     15  N8  198 A 501      24.653   7.466   3.053  0.00  0.00    +0.000 NA
ENDBRANCH   8  14
ENDBRANCH   3   4
BRANCH   1  16
ATOM     16  C11 198 A 501      29.622   0.588   5.969  0.00  0.00    +0.000 C 
ATOM     17  O11 198 A 501      29.172  -0.286   7.006  0.00  0.00    +0.000 OA
ATOM     18  C12 198 A 501      31.021   1.111   6.303  0.00  0.00    +0.000 C 
BRANCH  16  19
ATOM     19  C13 198 A 501      29.644  -0.175   4.641  0.00  0.00    +0.000 C 
BRANCH  19  20
ATOM     20  S14 198 A 501      28.203  -1.270   4.361  0.00  0.00    +0.000 S 
ATOM     21  O14 198 A 501      27.918  -2.073   5.596  0.00  0.00    +0.000 OA
ATOM     22  O15 198 A 501      28.492  -2.191   3.214  0.00  0.00    +0.000 OA
BRANCH  20  29
ATOM     23  C16 198 A 501      25.964   0.154   5.002  0.00  0.00    +0.000 A 
ATOM     24  C17 198 A 501      24.864   0.952   4.698  0.00  0.00    +0.000 A 
ATOM     25  C18 198 A 501      24.609   1.305   3.376  0.00  0.00    +0.000 A 
ATOM     26  F18 198 A 501      23.547   2.077   3.074  0.00  0.00    +0.000 F 
ATOM     27  C19 198 A 501      25.450   0.863   2.360  0.00  0.00    +0.000 A 
ATOM     28  C20 198 A 501      26.548   0.064   2.664  0.00  0.00    +0.000 A 
ATOM     29  C15 198 A 501      26.805  -0.289   3.985  0.00  0.00    +0.000 A 
ENDBRANCH  20  29
ENDBRANCH  19  20
ENDBRANCH  16  19
ENDBRANCH   1  16
TORSDOF 7
ENDMDL
MODEL 4
REMARK VINA RESULT:      -5.4      3.872      6.062
REMARK  Name = ligand_pdbs\198.pdb
REMARK  7 active torsions:
REMARK  status: ('A' for Active; 'I' for Inactive)
REMARK    1  A    between atoms: C15_7  and  S14_8
REMARK    2  A    between atoms: S14_8  and  C13_11
REMARK    3  A    between atoms: C13_11  and  C11_12
REMARK    4  A    between atoms: C11_12  and  C10_15
REMARK    5  A    between atoms: N9_17  and  C1_18
REMARK    6  A    between atoms: C4_22  and  C8_23
REMARK    7  A    between atoms: C3_25  and  C7_26
REMARK                            x       y       z     vdW  Elec       q    Type
REMARK                         _______ _______ _______ _____ _____    ______ ____
ROOT
ATOM      1  C10 198 A 501      26.816   5.284   3.931  0.00  0.00    +0.000 C 
ATOM      2  O10 198 A 501      27.509   5.217   2.916  0.00  0.00    +0.000 OA
ATOM      3  N9  198 A 501      27.073   4.652   5.074  0.00  0.00    +0.000 NA
ENDROOT
BRANCH   3   4
ATOM      4  C1  198 A 501      28.030   3.745   5.272  0.00  0.00    +0.000 A 
ATOM      5  C2  198 A 501      28.285   2.696   4.391  0.00  0.00    +0.000 A 
ATOM      6  C6  198 A 501      28.725   3.793   6.476  0.00  0.00    +0.000 A 
ATOM      7  C5  198 A 501      29.662   2.809   6.772  0.00  0.00    +0.000 A 
ATOM      8  C4  198 A 501      29.907   1.768   5.881  0.00  0.00    +0.000 A 
ATOM      9  C3  198 A 501      29.211   1.688   4.670  0.00  0.00    +0.000 A 
BRANCH   9  10
ATOM     10  C7  198 A 501      29.404   0.550   3.649  0.00  0.00    +0.000 C 
ATOM     11  F7B 198 A 501      28.482   0.646   2.697  0.00  0.00    +0.000 F 
ATOM     12  F7C 198 A 501      30.594   0.541   3.054  0.00  0.00    +0.000 F 
ATOM     13  F7A 198 A 501      29.286  -0.651   4.209  0.00  0.00    +0.000 F 
ENDBRANCH   9  10
BRANCH   8  14
ATOM     14  C8  198 A 501      30.912   0.827   6.272  0.00  0.00    +0.000 C 
ATOM     15  N8  198 A 501      31.719   0.091   6.592  0.00  0.00    +0.000 NA
ENDBRANCH   8  14
ENDBRANCH   3   4
BRANCH   1  16
ATOM     16  C11 198 A 501      25.626   6.244   4.002  0.00  0.00    +0.000 C 
ATOM     17  O11 198 A 501      25.876   7.343   3.122  0.00  0.00    +0.000 OA
ATOM     18  C12 198 A 501      25.486   6.753   5.439  0.00  0.00    +0.000 C 
BRANCH  16  19
ATOM     19  C13 198 A 501      24.344   5.531   3.565  0.00  0.00    +0.000 C 
BRANCH  19  20
ATOM     20  S14 198 A 501      23.754   4.235   4.717  0.00  0.00    +0.000 S 
ATOM     21  O14 198 A 501      22.266   4.085   4.604  0.00  0.00    +0.000 OA
ATOM     22  O15 198 A 501      24.119   4.612   6.121  0.00  0.00    +0.000 OA
BRANCH  20  29
ATOM     23  C16 198 A 501      24.926   1.841   5.305  0.00  0.00    +0.000 A 
ATOM     24  C17 198 A 501      25.511   0.624   4.969  0.00  0.00    +0.000 A 
ATOM     25  C18 198 A 501      25.680   0.282   3.630  0.00  0.00    +0.000 A 
ATOM     26  F18 198 A 501      26.245  -0.895   3.296  0.00  0.00    +0.000 F 
ATOM     27  C19 198 A 501      25.266   1.155   2.629  0.00  0.00    +0.000 A 
ATOM     28  C20 198 A 501      24.683   2.373   2.966  0.00  0.00    +0.000 A 
ATOM     29  C15 198 A 501      24.513   2.715   4.303  0.00  0.00    +0.000 A 
ENDBRANCH  20  29
ENDBRANCH  19  20
ENDBRANCH  16  19
ENDBRANCH   1  16
TORSDOF 7
ENDMDL
MODEL 5
REMARK VINA RESULT:      -5.2      2.091      3.439
REMARK  Name = ligand_pdbs\198.pdb
REMARK  7 active torsions:
REMARK  status: ('A' for Active; 'I' for Inactive)
REMARK    1  A    between atoms: C15_7  and  S14_8
REMARK    2  A    between atoms: S14_8  and  C13_11
REMARK    3  A    between atoms: C13_11  and  C11_12
REMARK    4  A    between atoms: C11_12  and  C10_15
REMARK    5  A    between atoms: N9_17  and  C1_18
REMARK    6  A    between atoms: C4_22  and  C8_23
REMARK    7  A    between atoms: C3_25  and  C7_26
REMARK                            x       y       z     vdW  Elec       q    Type
REMARK                         _______ _______ _______ _____ _____    ______ ____
ROOT
ATOM      1  C10 198 A 501      26.704   0.587   3.215  0.00  0.00    +0.000 C 
ATOM      2  O10 198 A 501      25.699   0.452   3.912  0.00  0.00    +0.000 OA
ATOM      3  N9  198 A 501      27.370   1.727   3.047  0.00  0.00    +0.000 NA
ENDROOT
BRANCH   3   4
ATOM      4  C1  198 A 501      26.993   2.929   3.486  0.00  0.00    +0.000 A 
ATOM      5  C2  198 A 501      25.707   3.209   3.943  0.00  0.00    +0.000 A 
ATOM      6  C6  198 A 501      27.906   3.972   3.371  0.00  0.00    +0.000 A 
ATOM      7  C5  198 A 501      27.526   5.263   3.721  0.00  0.00    +0.000 A 
ATOM      8  C4  198 A 501      26.238   5.527   4.178  0.00  0.00    +0.000 A 
ATOM      9  C3  198 A 501      25.296   4.498   4.289  0.00  0.00    +0.000 A 
BRANCH   9  10
ATOM     10  C7  198 A 501      23.844   4.718   4.755  0.00  0.00    +0.000 C 
ATOM     11  F7B 198 A 501      23.766   4.530   6.068  0.00  0.00    +0.000 F 
ATOM     12  F7C 198 A 501      23.359   5.929   4.494  0.00  0.00    +0.000 F 
ATOM     13  F7A 198 A 501      22.997   3.872   4.173  0.00  0.00    +0.000 F 
ENDBRANCH   9  10
BRANCH   8  14
ATOM     14  C8  198 A 501      25.962   6.885   4.538  0.00  0.00    +0.000 C 
ATOM     15  N8  198 A 501      25.757   7.965   4.834  0.00  0.00    +0.000 NA
ENDBRANCH   8  14
ENDBRANCH   3   4
BRANCH   1  16
ATOM     16  C11 198 A 501      27.370  -0.626   2.562  0.00  0.00    +0.000 C 
ATOM     17  O11 198 A 501      27.136  -0.569   1.152  0.00  0.00    +0.000 OA
ATOM     18  C12 198 A 501      26.749  -1.901   3.138  0.00  0.00    +0.000 C 
BRANCH  16  19
ATOM     19  C13 198 A 501      28.879  -0.606   2.823  0.00  0.00    +0.000 C 
BRANCH  19  20
ATOM     20  S14 198 A 501      29.360  -0.861   4.571  0.00  0.00    +0.000 S 
ATOM     21  O14 198 A 501      30.756  -1.403   4.647  0.00  0.00    +0.000 OA
ATOM     22  O15 198 A 501      28.408  -1.823   5.216  0.00  0.00    +0.000 OA
BRANCH  20  29
ATOM     23  C16 198 A 501      30.324   1.600   5.252  0.00  0.00    +0.000 A 
ATOM     24  C17 198 A 501      30.260   2.827   5.907  0.00  0.00    +0.000 A 
ATOM     25  C18 198 A 501      29.167   3.124   6.716  0.00  0.00    +0.000 A 
ATOM     26  F18 198 A 501      29.096   4.309   7.353  0.00  0.00    +0.000 F 
ATOM     27  C19 198 A 501      28.141   2.197   6.872  0.00  0.00    +0.000 A 
ATOM     28  C20 198 A 501      28.207   0.970   6.219  0.00  0.00    +0.000 A 
ATOM     29  C15 198 A 501      29.298   0.672   5.409  0.00  0.00    +0.000 A 
ENDBRANCH  20  29
ENDBRANCH  19  20
ENDBRANCH  16  19
ENDBRANCH   1  16
TORSDOF 7
ENDMDL
MODEL 6
REMARK VINA RESULT:      -4.6      4.158      7.095
REMARK  Name = ligand_pdbs\198.pdb
REMARK  7 active torsions:
REMARK  status: ('A' for Active; 'I' for Inactive)
REMARK    1  A    between atoms: C15_7  and  S14_8
REMARK    2  A    between atoms: S14_8  and  C13_11
REMARK    3  A    between atoms: C13_11  and  C11_12
REMARK    4  A    between atoms: C11_12  and  C10_15
REMARK    5  A    between atoms: N9_17  and  C1_18
REMARK    6  A    between atoms: C4_22  and  C8_23
REMARK    7  A    between atoms: C3_25  and  C7_26
REMARK                            x       y       z     vdW  Elec       q    Type
REMARK                         _______ _______ _______ _____ _____    ______ ____
ROOT
ATOM      1  C10 198 A 501      24.742   3.196   4.131  0.00  0.00    +0.000 C 
ATOM      2  O10 198 A 501      25.154   3.206   2.971  0.00  0.00    +0.000 OA
ATOM      3  N9  198 A 501      25.163   2.368   5.084  0.00  0.00    +0.000 NA
ENDROOT
BRANCH   3   4
ATOM      4  C1  198 A 501      25.987   1.333   4.917  0.00  0.00    +0.000 A 
ATOM      5  C2  198 A 501      27.135   1.138   5.683  0.00  0.00    +0.000 A 
ATOM      6  C6  198 A 501      25.739   0.476   3.851  0.00  0.00    +0.000 A 
ATOM      7  C5  198 A 501      26.626  -0.558   3.575  0.00  0.00    +0.000 A 
ATOM      8  C4  198 A 501      27.768  -0.742   4.350  0.00  0.00    +0.000 A 
ATOM      9  C3  198 A 501      28.049   0.115   5.419  0.00  0.00    +0.000 A 
BRANCH   9  10
ATOM     10  C7  198 A 501      29.307  -0.006   6.301  0.00  0.00    +0.000 C 
ATOM     11  F7B 198 A 501      29.102  -0.918   7.245  0.00  0.00    +0.000 F 
ATOM     12  F7C 198 A 501      30.410  -0.353   5.642  0.00  0.00    +0.000 F 
ATOM     13  F7A 198 A 501      29.609   1.142   6.904  0.00  0.00    +0.000 F 
ENDBRANCH   9  10
BRANCH   8  14
ATOM     14  C8  198 A 501      28.597  -1.855   3.997  0.00  0.00    +0.000 C 
ATOM     15  N8  198 A 501      29.269  -2.732   3.725  0.00  0.00    +0.000 NA
ENDBRANCH   8  14
ENDBRANCH   3   4
BRANCH   1  16
ATOM     16  C11 198 A 501      23.766   4.268   4.622  0.00  0.00    +0.000 C 
ATOM     17  O11 198 A 501      23.980   4.470   6.021  0.00  0.00    +0.000 OA
ATOM     18  C12 198 A 501      22.335   3.781   4.383  0.00  0.00    +0.000 C 
BRANCH  16  19
ATOM     19  C13 198 A 501      24.009   5.585   3.880  0.00  0.00    +0.000 C 
BRANCH  19  20
ATOM     20  S14 198 A 501      25.438   6.556   4.487  0.00  0.00    +0.000 S 
ATOM     21  O14 198 A 501      25.104   7.198   5.801  0.00  0.00    +0.000 OA
ATOM     22  O15 198 A 501      25.787   7.613   3.483  0.00  0.00    +0.000 OA
BRANCH  20  29
ATOM     23  C16 198 A 501      27.207   5.118   5.988  0.00  0.00    +0.000 A 
ATOM     24  C17 198 A 501      28.282   4.250   6.156  0.00  0.00    +0.000 A 
ATOM     25  C18 198 A 501      28.950   3.750   5.042  0.00  0.00    +0.000 A 
ATOM     26  F18 198 A 501      29.992   2.909   5.196  0.00  0.00    +0.000 F 
ATOM     27  C19 198 A 501      28.546   4.118   3.762  0.00  0.00    +0.000 A 
ATOM     28  C20 198 A 501      27.473   4.987   3.595  0.00  0.00    +0.000 A 
ATOM     29  C15 198 A 501      26.803   5.486   4.708  0.00  0.00    +0.000 A 
ENDBRANCH  20  29
ENDBRANCH  19  20
ENDBRANCH  16  19
ENDBRANCH   1  16
TORSDOF 7
ENDMDL
