MODEL 1
REMARK VINA RESULT:      -7.3      0.000      0.000
REMARK  Name = ligand_pdbs\198_A_501 .pdb
REMARK  7 active torsions:
REMARK  status: ('A' for Active; 'I' for Inactive)
REMARK    1  A    between atoms: C15_7  and  S14_8
REMARK    2  A    between atoms: S14_8  and  C13_11
REMARK    3  A    between atoms: C13_11  and  C11_12
REMARK    4  A    between atoms: C11_12  and  C10_15
REMARK    5  A    between atoms: N9_17  and  C1_18
REMARK    6  A    between atoms: C4_22  and  C8_23
REMARK    7  A    between atoms: C3_25  and  C7_26
REMARK                            x       y       z     vdW  Elec       q    Type
REMARK                         _______ _______ _______ _____ _____    ______ ____
ROOT
ATOM      1  C10 198 A 501      28.915   1.776   5.177  0.00  0.00    +0.000 C 
ATOM      2  O10 198 A 501      29.186   2.098   4.021  0.00  0.00    +0.000 OA
ATOM      3  N9  198 A 501      28.107   2.454   5.990  0.00  0.00    +0.000 NA
ENDROOT
BRANCH   3   4
ATOM      4  C1  198 A 501      27.572   3.651   5.745  0.00  0.00    +0.000 A 
ATOM      5  C2  198 A 501      26.212   3.849   5.513  0.00  0.00    +0.000 A 
ATOM      6  C6  198 A 501      28.439   4.729   5.608  0.00  0.00    +0.000 A 
ATOM      7  C5  198 A 501      27.938   5.977   5.254  0.00  0.00    +0.000 A 
ATOM      8  C4  198 A 501      26.577   6.160   5.026  0.00  0.00    +0.000 A 
ATOM      9  C3  198 A 501      25.685   5.088   5.143  0.00  0.00    +0.000 A 
BRANCH   9  10
ATOM     10  C7  198 A 501      24.172   5.205   4.875  0.00  0.00    +0.000 C 
ATOM     11  F7B 198 A 501      23.535   4.215   5.491  0.00  0.00    +0.000 F 
ATOM     12  F7C 198 A 501      23.627   6.347   5.285  0.00  0.00    +0.000 F 
ATOM     13  F7A 198 A 501      23.885   5.128   3.578  0.00  0.00    +0.000 F 
ENDBRANCH   9  10
BRANCH   8  14
ATOM     14  C8  198 A 501      26.166   7.491   4.696  0.00  0.00    +0.000 C 
ATOM     15  N8  198 A 501      25.851   8.555   4.445  0.00  0.00    +0.000 NA
ENDBRANCH   8  14
ENDBRANCH   3   4
BRANCH   1  16
ATOM     16  C11 198 A 501      29.402   0.443   5.752  0.00  0.00    +0.000 C 
ATOM     17  O11 198 A 501      28.423  -0.037   6.677  0.00  0.00    +0.000 OA
ATOM     18  C12 198 A 501      30.729   0.674   6.477  0.00  0.00    +0.000 C 
BRANCH  16  19
ATOM     19  C13 198 A 501      29.581  -0.583   4.630  0.00  0.00    +0.000 C 
BRANCH  19  20
ATOM     20  S14 198 A 501      28.054  -1.473   4.152  0.00  0.00    +0.000 S 
ATOM     21  O14 198 A 501      27.627  -2.393   5.258  0.00  0.00    +0.000 OA
ATOM     22  O15 198 A 501      28.308  -2.266   2.905  0.00  0.00    +0.000 OA
BRANCH  20  29
ATOM     23  C16 198 A 501      26.677   0.315   2.617  0.00  0.00    +0.000 A 
ATOM     24  C17 198 A 501      25.651   1.225   2.382  0.00  0.00    +0.000 A 
ATOM     25  C18 198 A 501      24.731   1.508   3.387  0.00  0.00    +0.000 A 
ATOM     26  F18 198 A 501      23.734   2.387   3.167  0.00  0.00    +0.000 F 
ATOM     27  C19 198 A 501      24.837   0.883   4.626  0.00  0.00    +0.000 A 
ATOM     28  C20 198 A 501      25.864  -0.026   4.861  0.00  0.00    +0.000 A 
ATOM     29  C15 198 A 501      26.783  -0.310   3.857  0.00  0.00    +0.000 A 
ENDBRANCH  20  29
ENDBRANCH  19  20
ENDBRANCH  16  19
ENDBRANCH   1  16
TORSDOF 7
ENDMDL
MODEL 2
REMARK VINA RESULT:      -6.3      2.464      4.212
REMARK  Name = ligand_pdbs\198_A_501 .pdb
REMARK  7 active torsions:
REMARK  status: ('A' for Active; 'I' for Inactive)
REMARK    1  A    between atoms: C15_7  and  S14_8
REMARK    2  A    between atoms: S14_8  and  C13_11
REMARK    3  A    between atoms: C13_11  and  C11_12
REMARK    4  A    between atoms: C11_12  and  C10_15
REMARK    5  A    between atoms: N9_17  and  C1_18
REMARK    6  A    between atoms: C4_22  and  C8_23
REMARK    7  A    between atoms: C3_25  and  C7_26
REMARK                            x       y       z     vdW  Elec       q    Type
REMARK                         _______ _______ _______ _____ _____    ______ ____
ROOT
ATOM      1  C10 198 A 501      26.597  -0.681   4.253  0.00  0.00    +0.000 C 
ATOM      2  O10 198 A 501      26.579  -0.466   5.464  0.00  0.00    +0.000 OA
ATOM      3  N9  198 A 501      26.328   0.222   3.312  0.00  0.00    +0.000 NA
ENDROOT
BRANCH   3   4
ATOM      4  C1  198 A 501      25.866   1.456   3.518  0.00  0.00    +0.000 A 
ATOM      5  C2  198 A 501      26.643   2.601   3.356  0.00  0.00    +0.000 A 
ATOM      6  C6  198 A 501      24.578   1.586   4.026  0.00  0.00    +0.000 A 
ATOM      7  C5  198 A 501      24.089   2.847   4.351  0.00  0.00    +0.000 A 
ATOM      8  C4  198 A 501      24.877   3.982   4.182  0.00  0.00    +0.000 A 
ATOM      9  C3  198 A 501      26.181   3.877   3.687  0.00  0.00    +0.000 A 
BRANCH   9  10
ATOM     10  C7  198 A 501      27.123   5.082   3.503  0.00  0.00    +0.000 C 
ATOM     11  F7B 198 A 501      26.483   6.051   2.856  0.00  0.00    +0.000 F 
ATOM     12  F7C 198 A 501      27.585   5.598   4.639  0.00  0.00    +0.000 F 
ATOM     13  F7A 198 A 501      28.206   4.770   2.797  0.00  0.00    +0.000 F 
ENDBRANCH   9  10
BRANCH   8  14
ATOM     14  C8  198 A 501      24.264   5.231   4.520  0.00  0.00    +0.000 C 
ATOM     15  N8  198 A 501      23.792   6.231   4.789  0.00  0.00    +0.000 NA
ENDBRANCH   8  14
ENDBRANCH   3   4
BRANCH   1  16
ATOM     16  C11 198 A 501      27.077  -2.027   3.706  0.00  0.00    +0.000 C 
ATOM     17  O11 198 A 501      27.156  -1.937   2.281  0.00  0.00    +0.000 OA
ATOM     18  C12 198 A 501      26.070  -3.109   4.101  0.00  0.00    +0.000 C 
BRANCH  16  19
ATOM     19  C13 198 A 501      28.463  -2.362   4.265  0.00  0.00    +0.000 C 
BRANCH  19  20
ATOM     20  S14 198 A 501      29.800  -1.229   3.735  0.00  0.00    +0.000 S 
ATOM     21  O14 198 A 501      29.562  -0.777   2.324  0.00  0.00    +0.000 OA
ATOM     22  O15 198 A 501      31.119  -1.937   3.824  0.00  0.00    +0.000 OA
BRANCH  20  29
ATOM     23  C16 198 A 501      29.597   1.441   4.263  0.00  0.00    +0.000 A 
ATOM     24  C17 198 A 501      29.590   2.548   5.108  0.00  0.00    +0.000 A 
ATOM     25  C18 198 A 501      29.799   2.379   6.473  0.00  0.00    +0.000 A 
ATOM     26  F18 198 A 501      29.793   3.445   7.298  0.00  0.00    +0.000 F 
ATOM     27  C19 198 A 501      30.016   1.107   6.994  0.00  0.00    +0.000 A 
ATOM     28  C20 198 A 501      30.024   0.002   6.150  0.00  0.00    +0.000 A 
ATOM     29  C15 198 A 501      29.814   0.169   4.785  0.00  0.00    +0.000 A 
ENDBRANCH  20  29
ENDBRANCH  19  20
ENDBRANCH  16  19
ENDBRANCH   1  16
TORSDOF 7
ENDMDL
MODEL 3
REMARK VINA RESULT:      -5.4      2.446      4.011
REMARK  Name = ligand_pdbs\198_A_501 .pdb
REMARK  7 active torsions:
REMARK  status: ('A' for Active; 'I' for Inactive)
REMARK    1  A    between atoms: C15_7  and  S14_8
REMARK    2  A    between atoms: S14_8  and  C13_11
REMARK    3  A    between atoms: C13_11  and  C11_12
REMARK    4  A    between atoms: C11_12  and  C10_15
REMARK    5  A    between atoms: N9_17  and  C1_18
REMARK    6  A    between atoms: C4_22  and  C8_23
REMARK    7  A    between atoms: C3_25  and  C7_26
REMARK                            x       y       z     vdW  Elec       q    Type
REMARK                         _______ _______ _______ _____ _____    ______ ____
ROOT
ATOM      1  C10 198 A 501      25.949   1.493   3.393  0.00  0.00    +0.000 C 
ATOM      2  O10 198 A 501      26.303   2.025   2.341  0.00  0.00    +0.000 OA
ATOM      3  N9  198 A 501      25.426   2.135   4.435  0.00  0.00    +0.000 NA
ENDROOT
BRANCH   3   4
ATOM      4  C1  198 A 501      25.325   3.458   4.573  0.00  0.00    +0.000 A 
ATOM      5  C2  198 A 501      26.428   4.307   4.642  0.00  0.00    +0.000 A 
ATOM      6  C6  198 A 501      24.056   3.990   4.769  0.00  0.00    +0.000 A 
ATOM      7  C5  198 A 501      23.908   5.350   5.018  0.00  0.00    +0.000 A 
ATOM      8  C4  198 A 501      25.019   6.186   5.083  0.00  0.00    +0.000 A 
ATOM      9  C3  198 A 501      26.308   5.674   4.904  0.00  0.00    +0.000 A 
BRANCH   9  10
ATOM     10  C7  198 A 501      27.586   6.530   4.993  0.00  0.00    +0.000 C 
ATOM     11  F7B 198 A 501      28.534   5.994   4.230  0.00  0.00    +0.000 F 
ATOM     12  F7C 198 A 501      27.430   7.794   4.609  0.00  0.00    +0.000 F 
ATOM     13  F7A 198 A 501      28.058   6.600   6.236  0.00  0.00    +0.000 F 
ENDBRANCH   9  10
BRANCH   8  14
ATOM     14  C8  198 A 501      24.751   7.574   5.315  0.00  0.00    +0.000 C 
ATOM     15  N8  198 A 501      24.527   8.672   5.511  0.00  0.00    +0.000 NA
ENDBRANCH   8  14
ENDBRANCH   3   4
BRANCH   1  16
ATOM     16  C11 198 A 501      25.962  -0.030   3.540  0.00  0.00    +0.000 C 
ATOM     17  O11 198 A 501      24.736  -0.547   3.015  0.00  0.00    +0.000 OA
ATOM     18  C12 198 A 501      26.078  -0.383   5.025  0.00  0.00    +0.000 C 
BRANCH  16  19
ATOM     19  C13 198 A 501      27.135  -0.628   2.759  0.00  0.00    +0.000 C 
BRANCH  19  20
ATOM     20  S14 198 A 501      28.543  -1.182   3.791  0.00  0.00    +0.000 S 
ATOM     21  O14 198 A 501      29.679  -1.624   2.918  0.00  0.00    +0.000 OA
ATOM     22  O15 198 A 501      28.104  -2.319   4.664  0.00  0.00    +0.000 OA
BRANCH  20  29
ATOM     23  C16 198 A 501      29.414  -0.064   6.124  0.00  0.00    +0.000 A 
ATOM     24  C17 198 A 501      29.858   0.996   6.909  0.00  0.00    +0.000 A 
ATOM     25  C18 198 A 501      29.966   2.269   6.357  0.00  0.00    +0.000 A 
ATOM     26  F18 198 A 501      30.395   3.301   7.110  0.00  0.00    +0.000 F 
ATOM     27  C19 198 A 501      29.630   2.483   5.024  0.00  0.00    +0.000 A 
ATOM     28  C20 198 A 501      29.184   1.423   4.241  0.00  0.00    +0.000 A 
ATOM     29  C15 198 A 501      29.077   0.150   4.790  0.00  0.00    +0.000 A 
ENDBRANCH  20  29
ENDBRANCH  19  20
ENDBRANCH  16  19
ENDBRANCH   1  16
TORSDOF 7
ENDMDL
MODEL 4
REMARK VINA RESULT:      -5.4      3.875      6.065
REMARK  Name = ligand_pdbs\198_A_501 .pdb
REMARK  7 active torsions:
REMARK  status: ('A' for Active; 'I' for Inactive)
REMARK    1  A    between atoms: C15_7  and  S14_8
REMARK    2  A    between atoms: S14_8  and  C13_11
REMARK    3  A    between atoms: C13_11  and  C11_12
REMARK    4  A    between atoms: C11_12  and  C10_15
REMARK    5  A    between atoms: N9_17  and  C1_18
REMARK    6  A    between atoms: C4_22  and  C8_23
REMARK    7  A    between atoms: C3_25  and  C7_26
REMARK                            x       y       z     vdW  Elec       q    Type
REMARK                         _______ _______ _______ _____ _____    ______ ____
ROOT
ATOM      1  C10 198 A 501      26.807   5.287   3.934  0.00  0.00    +0.000 C 
ATOM      2  O10 198 A 501      27.505   5.222   2.923  0.00  0.00    +0.000 OA
ATOM      3  N9  198 A 501      27.057   4.652   5.077  0.00  0.00    +0.000 NA
ENDROOT
BRANCH   3   4
ATOM      4  C1  198 A 501      28.013   3.744   5.278  0.00  0.00    +0.000 A 
ATOM      5  C2  198 A 501      28.275   2.699   4.394  0.00  0.00    +0.000 A 
ATOM      6  C6  198 A 501      28.699   3.787   6.487  0.00  0.00    +0.000 A 
ATOM      7  C5  198 A 501      29.634   2.802   6.786  0.00  0.00    +0.000 A 
ATOM      8  C4  198 A 501      29.886   1.766   5.892  0.00  0.00    +0.000 A 
ATOM      9  C3  198 A 501      29.199   1.691   4.676  0.00  0.00    +0.000 A 
BRANCH   9  10
ATOM     10  C7  198 A 501      29.401   0.557   3.651  0.00  0.00    +0.000 C 
ATOM     11  F7B 198 A 501      28.477   0.649   2.700  0.00  0.00    +0.000 F 
ATOM     12  F7C 198 A 501      30.590   0.559   3.055  0.00  0.00    +0.000 F 
ATOM     13  F7A 198 A 501      29.292  -0.647   4.207  0.00  0.00    +0.000 F 
ENDBRANCH   9  10
BRANCH   8  14
ATOM     14  C8  198 A 501      30.889   0.823   6.286  0.00  0.00    +0.000 C 
ATOM     15  N8  198 A 501      31.691   0.084   6.612  0.00  0.00    +0.000 NA
ENDBRANCH   8  14
ENDBRANCH   3   4
BRANCH   1  16
ATOM     16  C11 198 A 501      25.617   6.247   4.001  0.00  0.00    +0.000 C 
ATOM     17  O11 198 A 501      25.867   7.342   3.118  0.00  0.00    +0.000 OA
ATOM     18  C12 198 A 501      25.476   6.760   5.436  0.00  0.00    +0.000 C 
BRANCH  16  19
ATOM     19  C13 198 A 501      24.335   5.531   3.566  0.00  0.00    +0.000 C 
BRANCH  19  20
ATOM     20  S14 198 A 501      23.746   4.238   4.720  0.00  0.00    +0.000 S 
ATOM     21  O14 198 A 501      22.257   4.088   4.609  0.00  0.00    +0.000 OA
ATOM     22  O15 198 A 501      24.113   4.617   6.124  0.00  0.00    +0.000 OA
BRANCH  20  29
ATOM     23  C16 198 A 501      24.934   1.853   5.311  0.00  0.00    +0.000 A 
ATOM     24  C17 198 A 501      25.518   0.634   4.977  0.00  0.00    +0.000 A 
ATOM     25  C18 198 A 501      25.669   0.282   3.639  0.00  0.00    +0.000 A 
ATOM     26  F18 198 A 501      26.233  -0.896   3.307  0.00  0.00    +0.000 F 
ATOM     27  C19 198 A 501      25.239   1.146   2.637  0.00  0.00    +0.000 A 
ATOM     28  C20 198 A 501      24.657   2.364   2.972  0.00  0.00    +0.000 A 
ATOM     29  C15 198 A 501      24.504   2.717   4.308  0.00  0.00    +0.000 A 
ENDBRANCH  20  29
ENDBRANCH  19  20
ENDBRANCH  16  19
ENDBRANCH   1  16
TORSDOF 7
ENDMDL
MODEL 5
REMARK VINA RESULT:      -5.4      1.744      2.172
REMARK  Name = ligand_pdbs\198_A_501 .pdb
REMARK  7 active torsions:
REMARK  status: ('A' for Active; 'I' for Inactive)
REMARK    1  A    between atoms: C15_7  and  S14_8
REMARK    2  A    between atoms: S14_8  and  C13_11
REMARK    3  A    between atoms: C13_11  and  C11_12
REMARK    4  A    between atoms: C11_12  and  C10_15
REMARK    5  A    between atoms: N9_17  and  C1_18
REMARK    6  A    between atoms: C4_22  and  C8_23
REMARK    7  A    between atoms: C3_25  and  C7_26
REMARK                            x       y       z     vdW  Elec       q    Type
REMARK                         _______ _______ _______ _____ _____    ______ ____
ROOT
ATOM      1  C10 198 A 501      28.672   1.714   5.868  0.00  0.00    +0.000 C 
ATOM      2  O10 198 A 501      27.821   1.876   6.741  0.00  0.00    +0.000 OA
ATOM      3  N9  198 A 501      28.869   2.525   4.831  0.00  0.00    +0.000 NA
ENDROOT
BRANCH   3   4
ATOM      4  C1  198 A 501      28.103   3.561   4.488  0.00  0.00    +0.000 A 
ATOM      5  C2  198 A 501      28.176   4.806   5.108  0.00  0.00    +0.000 A 
ATOM      6  C6  198 A 501      27.109   3.341   3.541  0.00  0.00    +0.000 A 
ATOM      7  C5  198 A 501      26.220   4.363   3.223  0.00  0.00    +0.000 A 
ATOM      8  C4  198 A 501      26.307   5.602   3.850  0.00  0.00    +0.000 A 
ATOM      9  C3  198 A 501      27.288   5.844   4.817  0.00  0.00    +0.000 A 
BRANCH   9  10
ATOM     10  C7  198 A 501      27.426   7.178   5.576  0.00  0.00    +0.000 C 
ATOM     11  F7B 198 A 501      26.265   7.489   6.144  0.00  0.00    +0.000 F 
ATOM     12  F7C 198 A 501      28.350   7.175   6.533  0.00  0.00    +0.000 F 
ATOM     13  F7A 198 A 501      27.764   8.182   4.770  0.00  0.00    +0.000 F 
ENDBRANCH   9  10
BRANCH   8  14
ATOM     14  C8  198 A 501      25.361   6.590   3.427  0.00  0.00    +0.000 C 
ATOM     15  N8  198 A 501      24.597   7.367   3.098  0.00  0.00    +0.000 NA
ENDBRANCH   8  14
ENDBRANCH   3   4
BRANCH   1  16
ATOM     16  C11 198 A 501      29.702   0.586   5.982  0.00  0.00    +0.000 C 
ATOM     17  O11 198 A 501      29.343  -0.246   7.087  0.00  0.00    +0.000 OA
ATOM     18  C12 198 A 501      31.083   1.201   6.224  0.00  0.00    +0.000 C 
BRANCH  16  19
ATOM     19  C13 198 A 501      29.712  -0.253   4.702  0.00  0.00    +0.000 C 
BRANCH  19  20
ATOM     20  S14 198 A 501      28.245  -1.326   4.475  0.00  0.00    +0.000 S 
ATOM     21  O14 198 A 501      27.895  -1.999   5.769  0.00  0.00    +0.000 OA
ATOM     22  O15 198 A 501      28.539  -2.360   3.430  0.00  0.00    +0.000 OA
BRANCH  20  29
ATOM     23  C16 198 A 501      26.747   0.005   2.621  0.00  0.00    +0.000 A 
ATOM     24  C17 198 A 501      25.658   0.770   2.215  0.00  0.00    +0.000 A 
ATOM     25  C18 198 A 501      24.715   1.185   3.151  0.00  0.00    +0.000 A 
ATOM     26  F18 198 A 501      23.657   1.927   2.766  0.00  0.00    +0.000 F 
ATOM     27  C19 198 A 501      24.861   0.838   4.490  0.00  0.00    +0.000 A 
ATOM     28  C20 198 A 501      25.951   0.074   4.896  0.00  0.00    +0.000 A 
ATOM     29  C15 198 A 501      26.893  -0.343   3.961  0.00  0.00    +0.000 A 
ENDBRANCH  20  29
ENDBRANCH  19  20
ENDBRANCH  16  19
ENDBRANCH   1  16
TORSDOF 7
ENDMDL
MODEL 6
REMARK VINA RESULT:      -5.2      2.165      3.712
REMARK  Name = ligand_pdbs\198_A_501 .pdb
REMARK  7 active torsions:
REMARK  status: ('A' for Active; 'I' for Inactive)
REMARK    1  A    between atoms: C15_7  and  S14_8
REMARK    2  A    between atoms: S14_8  and  C13_11
REMARK    3  A    between atoms: C13_11  and  C11_12
REMARK    4  A    between atoms: C11_12  and  C10_15
REMARK    5  A    between atoms: N9_17  and  C1_18
REMARK    6  A    between atoms: C4_22  and  C8_23
REMARK    7  A    between atoms: C3_25  and  C7_26
REMARK                            x       y       z     vdW  Elec       q    Type
REMARK                         _______ _______ _______ _____ _____    ______ ____
ROOT
ATOM      1  C10 198 A 501      26.712  -0.394   4.149  0.00  0.00    +0.000 C 
ATOM      2  O10 198 A 501      26.344  -0.300   5.320  0.00  0.00    +0.000 OA
ATOM      3  N9  198 A 501      26.924   0.634   3.331  0.00  0.00    +0.000 NA
ENDROOT
BRANCH   3   4
ATOM      4  C1  198 A 501      26.649   1.913   3.588  0.00  0.00    +0.000 A 
ATOM      5  C2  198 A 501      25.403   2.355   4.029  0.00  0.00    +0.000 A 
ATOM      6  C6  198 A 501      27.628   2.855   3.291  0.00  0.00    +0.000 A 
ATOM      7  C5  198 A 501      27.352   4.210   3.447  0.00  0.00    +0.000 A 
ATOM      8  C4  198 A 501      26.103   4.635   3.890  0.00  0.00    +0.000 A 
ATOM      9  C3  198 A 501      25.097   3.709   4.182  0.00  0.00    +0.000 A 
BRANCH   9  10
ATOM     10  C7  198 A 501      23.681   4.105   4.646  0.00  0.00    +0.000 C 
ATOM     11  F7B 198 A 501      23.725   4.507   5.912  0.00  0.00    +0.000 F 
ATOM     12  F7C 198 A 501      23.122   5.080   3.935  0.00  0.00    +0.000 F 
ATOM     13  F7A 198 A 501      22.827   3.087   4.573  0.00  0.00    +0.000 F 
ENDBRANCH   9  10
BRANCH   8  14
ATOM     14  C8  198 A 501      25.937   6.049   4.043  0.00  0.00    +0.000 C 
ATOM     15  N8  198 A 501      25.795   7.170   4.179  0.00  0.00    +0.000 NA
ENDBRANCH   8  14
ENDBRANCH   3   4
BRANCH   1  16
ATOM     16  C11 198 A 501      27.095  -1.753   3.557  0.00  0.00    +0.000 C 
ATOM     17  O11 198 A 501      27.299  -1.594   2.151  0.00  0.00    +0.000 OA
ATOM     18  C12 198 A 501      25.952  -2.740   3.806  0.00  0.00    +0.000 C 
BRANCH  16  19
ATOM     19  C13 198 A 501      28.387  -2.264   4.199  0.00  0.00    +0.000 C 
BRANCH  19  20
ATOM     20  S14 198 A 501      29.867  -1.238   3.869  0.00  0.00    +0.000 S 
ATOM     21  O14 198 A 501      29.847  -0.747   2.451  0.00  0.00    +0.000 OA
ATOM     22  O15 198 A 501      31.103  -2.053   4.104  0.00  0.00    +0.000 OA
BRANCH  20  29
ATOM     23  C16 198 A 501      30.238   1.396   4.484  0.00  0.00    +0.000 A 
ATOM     24  C17 198 A 501      30.212   2.491   5.343  0.00  0.00    +0.000 A 
ATOM     25  C18 198 A 501      29.806   2.326   6.664  0.00  0.00    +0.000 A 
ATOM     26  F18 198 A 501      29.776   3.382   7.502  0.00  0.00    +0.000 F 
ATOM     27  C19 198 A 501      29.428   1.070   7.127  0.00  0.00    +0.000 A 
ATOM     28  C20 198 A 501      29.456  -0.025   6.268  0.00  0.00    +0.000 A 
ATOM     29  C15 198 A 501      29.861   0.138   4.947  0.00  0.00    +0.000 A 
ENDBRANCH  20  29
ENDBRANCH  19  20
ENDBRANCH  16  19
ENDBRANCH   1  16
TORSDOF 7
ENDMDL
MODEL 7
REMARK VINA RESULT:      -4.7      3.898      6.335
REMARK  Name = ligand_pdbs\198_A_501 .pdb
REMARK  7 active torsions:
REMARK  status: ('A' for Active; 'I' for Inactive)
REMARK    1  A    between atoms: C15_7  and  S14_8
REMARK    2  A    between atoms: S14_8  and  C13_11
REMARK    3  A    between atoms: C13_11  and  C11_12
REMARK    4  A    between atoms: C11_12  and  C10_15
REMARK    5  A    between atoms: N9_17  and  C1_18
REMARK    6  A    between atoms: C4_22  and  C8_23
REMARK    7  A    between atoms: C3_25  and  C7_26
REMARK                            x       y       z     vdW  Elec       q    Type
REMARK                         _______ _______ _______ _____ _____    ______ ____
ROOT
ATOM      1  C10 198 A 501      27.414   4.345   4.940  0.00  0.00    +0.000 C 
ATOM      2  O10 198 A 501      27.525   4.076   6.136  0.00  0.00    +0.000 OA
ATOM      3  N9  198 A 501      27.707   3.517   3.940  0.00  0.00    +0.000 NA
ENDROOT
BRANCH   3   4
ATOM      4  C1  198 A 501      28.294   2.325   4.053  0.00  0.00    +0.000 A 
ATOM      5  C2  198 A 501      28.969   1.910   5.199  0.00  0.00    +0.000 A 
ATOM      6  C6  198 A 501      28.322   1.511   2.926  0.00  0.00    +0.000 A 
ATOM      7  C5  198 A 501      29.009   0.302   2.965  0.00  0.00    +0.000 A 
ATOM      8  C4  198 A 501      29.677  -0.100   4.118  0.00  0.00    +0.000 A 
ATOM      9  C3  198 A 501      29.677   0.707   5.260  0.00  0.00    +0.000 A 
BRANCH   9  10
ATOM     10  C7  198 A 501      30.420   0.345   6.561  0.00  0.00    +0.000 C 
ATOM     11  F7B 198 A 501      29.680  -0.496   7.276  0.00  0.00    +0.000 F 
ATOM     12  F7C 198 A 501      31.608  -0.225   6.376  0.00  0.00    +0.000 F 
ATOM     13  F7A 198 A 501      30.662   1.414   7.315  0.00  0.00    +0.000 F 
ENDBRANCH   9  10
BRANCH   8  14
ATOM     14  C8  198 A 501      30.326  -1.375   4.058  0.00  0.00    +0.000 C 
ATOM     15  N8  198 A 501      30.837  -2.390   3.995  0.00  0.00    +0.000 NA
ENDBRANCH   8  14
ENDBRANCH   3   4
BRANCH   1  16
ATOM     16  C11 198 A 501      26.776   5.663   4.493  0.00  0.00    +0.000 C 
ATOM     17  O11 198 A 501      27.651   6.294   3.555  0.00  0.00    +0.000 OA
ATOM     18  C12 198 A 501      26.592   6.563   5.716  0.00  0.00    +0.000 C 
BRANCH  16  19
ATOM     19  C13 198 A 501      25.426   5.397   3.821  0.00  0.00    +0.000 C 
BRANCH  19  20
ATOM     20  S14 198 A 501      24.316   4.272   4.746  0.00  0.00    +0.000 S 
ATOM     21  O14 198 A 501      22.891   4.505   4.339  0.00  0.00    +0.000 OA
ATOM     22  O15 198 A 501      24.468   4.519   6.217  0.00  0.00    +0.000 OA
BRANCH  20  29
ATOM     23  C16 198 A 501      24.677   2.143   3.076  0.00  0.00    +0.000 A 
ATOM     24  C17 198 A 501      25.042   0.830   2.791  0.00  0.00    +0.000 A 
ATOM     25  C18 198 A 501      25.479  -0.005   3.814  0.00  0.00    +0.000 A 
ATOM     26  F18 198 A 501      25.835  -1.277   3.546  0.00  0.00    +0.000 F 
ATOM     27  C19 198 A 501      25.552   0.469   5.120  0.00  0.00    +0.000 A 
ATOM     28  C20 198 A 501      25.185   1.781   5.405  0.00  0.00    +0.000 A 
ATOM     29  C15 198 A 501      24.749   2.617   4.383  0.00  0.00    +0.000 A 
ENDBRANCH  20  29
ENDBRANCH  19  20
ENDBRANCH  16  19
ENDBRANCH   1  16
TORSDOF 7
ENDMDL
MODEL 8
REMARK VINA RESULT:      -4.3      1.955      3.390
REMARK  Name = ligand_pdbs\198_A_501 .pdb
REMARK  7 active torsions:
REMARK  status: ('A' for Active; 'I' for Inactive)
REMARK    1  A    between atoms: C15_7  and  S14_8
REMARK    2  A    between atoms: S14_8  and  C13_11
REMARK    3  A    between atoms: C13_11  and  C11_12
REMARK    4  A    between atoms: C11_12  and  C10_15
REMARK    5  A    between atoms: N9_17  and  C1_18
REMARK    6  A    between atoms: C4_22  and  C8_23
REMARK    7  A    between atoms: C3_25  and  C7_26
REMARK                            x       y       z     vdW  Elec       q    Type
REMARK                         _______ _______ _______ _____ _____    ______ ____
ROOT
ATOM      1  C10 198 A 501      26.581   1.002   3.011  0.00  0.00    +0.000 C 
ATOM      2  O10 198 A 501      25.430   0.946   3.445  0.00  0.00    +0.000 OA
ATOM      3  N9  198 A 501      27.394   2.048   3.134  0.00  0.00    +0.000 NA
ENDROOT
BRANCH   3   4
ATOM      4  C1  198 A 501      27.064   3.247   3.617  0.00  0.00    +0.000 A 
ATOM      5  C2  198 A 501      25.752   3.627   3.891  0.00  0.00    +0.000 A 
ATOM      6  C6  198 A 501      28.077   4.192   3.743  0.00  0.00    +0.000 A 
ATOM      7  C5  198 A 501      27.766   5.486   4.147  0.00  0.00    +0.000 A 
ATOM      8  C4  198 A 501      26.451   5.851   4.419  0.00  0.00    +0.000 A 
ATOM      9  C3  198 A 501      25.412   4.923   4.285  0.00  0.00    +0.000 A 
BRANCH   9  10
ATOM     10  C7  198 A 501      23.930   5.262   4.536  0.00  0.00    +0.000 C 
ATOM     11  F7B 198 A 501      23.698   6.525   4.192  0.00  0.00    +0.000 F 
ATOM     12  F7C 198 A 501      23.070   4.500   3.866  0.00  0.00    +0.000 F 
ATOM     13  F7A 198 A 501      23.593   5.122   5.816  0.00  0.00    +0.000 F 
ENDBRANCH   9  10
BRANCH   8  14
ATOM     14  C8  198 A 501      26.248   7.199   4.855  0.00  0.00    +0.000 C 
ATOM     15  N8  198 A 501      26.093   8.267   5.217  0.00  0.00    +0.000 NA
ENDBRANCH   8  14
ENDBRANCH   3   4
BRANCH   1  16
ATOM     16  C11 198 A 501      27.240  -0.230   2.384  0.00  0.00    +0.000 C 
ATOM     17  O11 198 A 501      28.656  -0.034   2.379  0.00  0.00    +0.000 OA
ATOM     18  C12 198 A 501      26.733  -0.384   0.949  0.00  0.00    +0.000 C 
BRANCH  16  19
ATOM     19  C13 198 A 501      26.908  -1.481   3.202  0.00  0.00    +0.000 C 
BRANCH  19  20
ATOM     20  S14 198 A 501      28.095  -1.860   4.543  0.00  0.00    +0.000 S 
ATOM     21  O14 198 A 501      29.294  -2.567   3.985  0.00  0.00    +0.000 OA
ATOM     22  O15 198 A 501      27.429  -2.727   5.569  0.00  0.00    +0.000 OA
BRANCH  20  29
ATOM     23  C16 198 A 501      29.935   0.051   5.184  0.00  0.00    +0.000 A 
ATOM     24  C17 198 A 501      30.336   1.252   5.762  0.00  0.00    +0.000 A 
ATOM     25  C18 198 A 501      29.409   2.037   6.442  0.00  0.00    +0.000 A 
ATOM     26  F18 198 A 501      29.788   3.202   7.004  0.00  0.00    +0.000 F 
ATOM     27  C19 198 A 501      28.085   1.622   6.546  0.00  0.00    +0.000 A 
ATOM     28  C20 198 A 501      27.686   0.420   5.969  0.00  0.00    +0.000 A 
ATOM     29  C15 198 A 501      28.611  -0.365   5.288  0.00  0.00    +0.000 A 
ENDBRANCH  20  29
ENDBRANCH  19  20
ENDBRANCH  16  19
ENDBRANCH   1  16
TORSDOF 7
ENDMDL
