MODEL 1
REMARK VINA RESULT:      -5.9      0.000      0.000
REMARK  Name = ligand_pdbs\2MI.pdb
REMARK  0 active torsions:
REMARK  status: ('A' for Active; 'I' for Inactive)
REMARK                            x       y       z     vdW  Elec       q    Type
REMARK                         _______ _______ _______ _____ _____    ______ ____
ROOT
ATOM      1  CAJ 2MI A 933      28.130   2.165   3.658  0.00  0.00    +0.000 C 
ATOM      2  CAG 2MI A 933      27.436   3.485   4.002  0.00  0.00    +0.000 C 
ATOM      3  CAC 2MI A 933      26.140   3.724   3.823  0.00  0.00    +0.000 C 
ATOM      4  CAA 2MI A 933      25.917   4.973   4.224  0.00  0.00    +0.000 A 
ATOM      5  CAD 2MI A 933      24.768   5.757   4.263  0.00  0.00    +0.000 A 
ATOM      6  CAH 2MI A 933      24.835   7.064   4.738  0.00  0.00    +0.000 A 
ATOM      7  CAI 2MI A 933      26.049   7.586   5.175  0.00  0.00    +0.000 A 
ATOM      8  CAF 2MI A 933      27.198   6.803   5.138  0.00  0.00    +0.000 A 
ATOM      9  CAB 2MI A 933      27.131   5.496   4.661  0.00  0.00    +0.000 A 
ATOM     10  NAE 2MI A 933      28.052   4.548   4.510  0.00  0.00    +0.000 NA
ENDROOT
TORSDOF 0
ENDMDL
MODEL 2
REMARK VINA RESULT:      -5.8      0.993      1.863
REMARK  Name = ligand_pdbs\2MI.pdb
REMARK  0 active torsions:
REMARK  status: ('A' for Active; 'I' for Inactive)
REMARK                            x       y       z     vdW  Elec       q    Type
REMARK                         _______ _______ _______ _____ _____    ______ ____
ROOT
ATOM      1  CAJ 2MI A 933      27.274   1.831   3.329  0.00  0.00    +0.000 C 
ATOM      2  CAG 2MI A 933      26.875   3.242   3.767  0.00  0.00    +0.000 C 
ATOM      3  CAC 2MI A 933      27.725   4.160   4.219  0.00  0.00    +0.000 C 
ATOM      4  CAA 2MI A 933      27.009   5.244   4.507  0.00  0.00    +0.000 A 
ATOM      5  CAD 2MI A 933      27.356   6.493   5.013  0.00  0.00    +0.000 A 
ATOM      6  CAH 2MI A 933      26.371   7.454   5.224  0.00  0.00    +0.000 A 
ATOM      7  CAI 2MI A 933      25.041   7.167   4.928  0.00  0.00    +0.000 A 
ATOM      8  CAF 2MI A 933      24.694   5.919   4.421  0.00  0.00    +0.000 A 
ATOM      9  CAB 2MI A 933      25.678   4.957   4.211  0.00  0.00    +0.000 A 
ATOM     10  NAE 2MI A 933      25.630   3.709   3.754  0.00  0.00    +0.000 NA
ENDROOT
TORSDOF 0
ENDMDL
MODEL 3
REMARK VINA RESULT:      -5.8      1.570      2.011
REMARK  Name = ligand_pdbs\2MI.pdb
REMARK  0 active torsions:
REMARK  status: ('A' for Active; 'I' for Inactive)
REMARK                            x       y       z     vdW  Elec       q    Type
REMARK                         _______ _______ _______ _____ _____    ______ ____
ROOT
ATOM      1  CAJ 2MI A 933      24.249   1.964   4.231  0.00  0.00    +0.000 C 
ATOM      2  CAG 2MI A 933      24.838   3.357   4.466  0.00  0.00    +0.000 C 
ATOM      3  CAC 2MI A 933      24.129   4.482   4.487  0.00  0.00    +0.000 C 
ATOM      4  CAA 2MI A 933      24.986   5.477   4.704  0.00  0.00    +0.000 A 
ATOM      5  CAD 2MI A 933      24.819   6.854   4.816  0.00  0.00    +0.000 A 
ATOM      6  CAH 2MI A 933      25.923   7.670   5.043  0.00  0.00    +0.000 A 
ATOM      7  CAI 2MI A 933      27.193   7.111   5.158  0.00  0.00    +0.000 A 
ATOM      8  CAF 2MI A 933      27.361   5.734   5.047  0.00  0.00    +0.000 A 
ATOM      9  CAB 2MI A 933      26.256   4.918   4.819  0.00  0.00    +0.000 A 
ATOM     10  NAE 2MI A 933      26.129   3.602   4.667  0.00  0.00    +0.000 NA
ENDROOT
TORSDOF 0
ENDMDL
MODEL 4
REMARK VINA RESULT:      -5.8      1.642      4.043
REMARK  Name = ligand_pdbs\2MI.pdb
REMARK  0 active torsions:
REMARK  status: ('A' for Active; 'I' for Inactive)
REMARK                            x       y       z     vdW  Elec       q    Type
REMARK                         _______ _______ _______ _____ _____    ______ ____
ROOT
ATOM      1  CAJ 2MI A 933      25.303   7.410   5.145  0.00  0.00    +0.000 C 
ATOM      2  CAG 2MI A 933      25.284   5.947   4.698  0.00  0.00    +0.000 C 
ATOM      3  CAC 2MI A 933      24.284   5.101   4.929  0.00  0.00    +0.000 C 
ATOM      4  CAA 2MI A 933      24.636   3.930   4.404  0.00  0.00    +0.000 A 
ATOM      5  CAD 2MI A 933      23.999   2.694   4.348  0.00  0.00    +0.000 A 
ATOM      6  CAH 2MI A 933      24.625   1.619   3.725  0.00  0.00    +0.000 A 
ATOM      7  CAI 2MI A 933      25.886   1.778   3.157  0.00  0.00    +0.000 A 
ATOM      8  CAF 2MI A 933      26.524   3.013   3.212  0.00  0.00    +0.000 A 
ATOM      9  CAB 2MI A 933      25.898   4.089   3.836  0.00  0.00    +0.000 A 
ATOM     10  NAE 2MI A 933      26.270   5.351   4.036  0.00  0.00    +0.000 NA
ENDROOT
TORSDOF 0
ENDMDL
MODEL 5
REMARK VINA RESULT:      -5.8      1.509      2.285
REMARK  Name = ligand_pdbs\2MI.pdb
REMARK  0 active torsions:
REMARK  status: ('A' for Active; 'I' for Inactive)
REMARK                            x       y       z     vdW  Elec       q    Type
REMARK                         _______ _______ _______ _____ _____    ______ ____
ROOT
ATOM      1  CAJ 2MI A 933      28.448   1.518   3.553  0.00  0.00    +0.000 C 
ATOM      2  CAG 2MI A 933      27.366   2.577   3.773  0.00  0.00    +0.000 C 
ATOM      3  CAC 2MI A 933      27.546   3.885   3.607  0.00  0.00    +0.000 C 
ATOM      4  CAA 2MI A 933      26.391   4.476   3.901  0.00  0.00    +0.000 A 
ATOM      5  CAD 2MI A 933      25.993   5.809   3.913  0.00  0.00    +0.000 A 
ATOM      6  CAH 2MI A 933      24.692   6.142   4.278  0.00  0.00    +0.000 A 
ATOM      7  CAI 2MI A 933      23.789   5.144   4.631  0.00  0.00    +0.000 A 
ATOM      8  CAF 2MI A 933      24.185   3.809   4.618  0.00  0.00    +0.000 A 
ATOM      9  CAB 2MI A 933      25.487   3.477   4.254  0.00  0.00    +0.000 A 
ATOM     10  NAE 2MI A 933      26.123   2.312   4.163  0.00  0.00    +0.000 NA
ENDROOT
TORSDOF 0
ENDMDL
MODEL 6
REMARK VINA RESULT:      -5.8      1.850      4.165
REMARK  Name = ligand_pdbs\2MI.pdb
REMARK  0 active torsions:
REMARK  status: ('A' for Active; 'I' for Inactive)
REMARK                            x       y       z     vdW  Elec       q    Type
REMARK                         _______ _______ _______ _____ _____    ______ ____
ROOT
ATOM      1  CAJ 2MI A 933      26.408   7.127   4.990  0.00  0.00    +0.000 C 
ATOM      2  CAG 2MI A 933      26.067   5.697   4.569  0.00  0.00    +0.000 C 
ATOM      3  CAC 2MI A 933      26.835   4.935   3.795  0.00  0.00    +0.000 C 
ATOM      4  CAA 2MI A 933      26.203   3.774   3.644  0.00  0.00    +0.000 A 
ATOM      5  CAD 2MI A 933      26.520   2.614   2.943  0.00  0.00    +0.000 A 
ATOM      6  CAH 2MI A 933      25.645   1.532   2.958  0.00  0.00    +0.000 A 
ATOM      7  CAI 2MI A 933      24.454   1.608   3.675  0.00  0.00    +0.000 A 
ATOM      8  CAF 2MI A 933      24.135   2.767   4.377  0.00  0.00    +0.000 A 
ATOM      9  CAB 2MI A 933      25.010   3.849   4.360  0.00  0.00    +0.000 A 
ATOM     10  NAE 2MI A 933      24.958   5.054   4.922  0.00  0.00    +0.000 NA
ENDROOT
TORSDOF 0
ENDMDL
MODEL 7
REMARK VINA RESULT:      -5.7      1.461      2.177
REMARK  Name = ligand_pdbs\2MI.pdb
REMARK  0 active torsions:
REMARK  status: ('A' for Active; 'I' for Inactive)
REMARK                            x       y       z     vdW  Elec       q    Type
REMARK                         _______ _______ _______ _____ _____    ______ ____
ROOT
ATOM      1  CAJ 2MI A 933      27.750   1.834   6.063  0.00  0.00    +0.000 C 
ATOM      2  CAG 2MI A 933      27.125   3.177   5.678  0.00  0.00    +0.000 C 
ATOM      3  CAC 2MI A 933      27.796   4.322   5.583  0.00  0.00    +0.000 C 
ATOM      4  CAA 2MI A 933      26.917   5.260   5.241  0.00  0.00    +0.000 A 
ATOM      5  CAD 2MI A 933      27.042   6.627   5.010  0.00  0.00    +0.000 A 
ATOM      6  CAH 2MI A 933      25.922   7.377   4.665  0.00  0.00    +0.000 A 
ATOM      7  CAI 2MI A 933      24.678   6.763   4.552  0.00  0.00    +0.000 A 
ATOM      8  CAF 2MI A 933      24.552   5.397   4.782  0.00  0.00    +0.000 A 
ATOM      9  CAB 2MI A 933      25.672   4.646   5.128  0.00  0.00    +0.000 A 
ATOM     10  NAE 2MI A 933      25.836   3.355   5.404  0.00  0.00    +0.000 NA
ENDROOT
TORSDOF 0
ENDMDL
MODEL 8
REMARK VINA RESULT:      -5.7      1.446      4.157
REMARK  Name = ligand_pdbs\2MI.pdb
REMARK  0 active torsions:
REMARK  status: ('A' for Active; 'I' for Inactive)
REMARK                            x       y       z     vdW  Elec       q    Type
REMARK                         _______ _______ _______ _____ _____    ______ ____
ROOT
ATOM      1  CAJ 2MI A 933      24.987   8.680   5.764  0.00  0.00    +0.000 C 
ATOM      2  CAG 2MI A 933      25.490   7.335   5.237  0.00  0.00    +0.000 C 
ATOM      3  CAC 2MI A 933      26.764   7.057   4.972  0.00  0.00    +0.000 C 
ATOM      4  CAA 2MI A 933      26.804   5.805   4.525  0.00  0.00    +0.000 A 
ATOM      5  CAD 2MI A 933      27.848   4.992   4.095  0.00  0.00    +0.000 A 
ATOM      6  CAH 2MI A 933      27.587   3.694   3.666  0.00  0.00    +0.000 A 
ATOM      7  CAI 2MI A 933      26.283   3.208   3.667  0.00  0.00    +0.000 A 
ATOM      8  CAF 2MI A 933      25.237   4.019   4.098  0.00  0.00    +0.000 A 
ATOM      9  CAB 2MI A 933      25.499   5.318   4.526  0.00  0.00    +0.000 A 
ATOM     10  NAE 2MI A 933      24.710   6.291   4.974  0.00  0.00    +0.000 NA
ENDROOT
TORSDOF 0
ENDMDL
MODEL 9
REMARK VINA RESULT:      -5.7      1.264      4.242
REMARK  Name = ligand_pdbs\2MI.pdb
REMARK  0 active torsions:
REMARK  status: ('A' for Active; 'I' for Inactive)
REMARK                            x       y       z     vdW  Elec       q    Type
REMARK                         _______ _______ _______ _____ _____    ______ ____
ROOT
ATOM      1  CAJ 2MI A 933      27.216   6.434   5.008  0.00  0.00    +0.000 C 
ATOM      2  CAG 2MI A 933      27.228   4.988   4.507  0.00  0.00    +0.000 C 
ATOM      3  CAC 2MI A 933      26.271   4.440   3.763  0.00  0.00    +0.000 C 
ATOM      4  CAA 2MI A 933      26.628   3.178   3.541  0.00  0.00    +0.000 A 
ATOM      5  CAD 2MI A 933      26.022   2.138   2.841  0.00  0.00    +0.000 A 
ATOM      6  CAH 2MI A 933      26.637   0.891   2.781  0.00  0.00    +0.000 A 
ATOM      7  CAI 2MI A 933      27.857   0.683   3.418  0.00  0.00    +0.000 A 
ATOM      8  CAF 2MI A 933      28.465   1.722   4.117  0.00  0.00    +0.000 A 
ATOM      9  CAB 2MI A 933      27.849   2.969   4.178  0.00  0.00    +0.000 A 
ATOM     10  NAE 2MI A 933      28.192   4.111   4.767  0.00  0.00    +0.000 NA
ENDROOT
TORSDOF 0
ENDMDL
