MODEL 1
REMARK VINA RESULT:      -6.3      0.000      0.000
REMARK  Name = ligand_pdbs\3B6.pdb
REMARK  7 active torsions:
REMARK  status: ('A' for Active; 'I' for Inactive)
REMARK    1  A    between atoms: C3_4  and  C8_5
REMARK    2  A    between atoms: C6_9  and  N9_10
REMARK    3  A    between atoms: C10_11  and  C11_13
REMARK    4  A    between atoms: C11_13  and  C13_16
REMARK    5  A    between atoms: C13_16  and  O14_17
REMARK    6  A    between atoms: O14_17  and  C16_18
REMARK    7  A    between atoms: C19_21  and  C22_22
REMARK                            x       y       z     vdW  Elec       q    Type
REMARK                         _______ _______ _______ _____ _____    ______ ____
ROOT
ATOM      1  C11 3B6 A   1      25.390   8.009   5.100  0.00  0.00    +0.000 C 
ATOM      2  O11 3B6 A   1      24.104   7.538   4.688  0.00  0.00    +0.000 OA
ATOM      3  C12 3B6 A   1      25.939   9.012   4.082  0.00  0.00    +0.000 C 
ENDROOT
BRANCH   1   5
ATOM      4  N9  3B6 A   1      25.737   5.631   5.196  0.00  0.00    +0.000 NA
ATOM      5  C10 3B6 A   1      26.342   6.816   5.219  0.00  0.00    +0.000 C 
ATOM      6  O10 3B6 A   1      27.555   6.984   5.342  0.00  0.00    +0.000 OA
BRANCH   4  13
ATOM      7  C5  3B6 A   1      26.127   3.403   4.378  0.00  0.00    +0.000 A 
ATOM      8  C4  3B6 A   1      26.769   2.176   4.540  0.00  0.00    +0.000 A 
ATOM      9  I7  3B6 A   1      26.462   0.637   3.147  0.00  0.00    +0.000 I 
ATOM     10  C3  3B6 A   1      27.620   1.992   5.624  0.00  0.00    +0.000 A 
ATOM     11  C2  3B6 A   1      27.831   3.025   6.533  0.00  0.00    +0.000 A 
ATOM     12  C1  3B6 A   1      27.188   4.246   6.365  0.00  0.00    +0.000 A 
ATOM     13  C6  3B6 A   1      26.331   4.441   5.285  0.00  0.00    +0.000 A 
BRANCH  10  14
ATOM     14  C8  3B6 A   1      28.288   0.745   5.851  0.00  0.00    +0.000 C 
ATOM     15  N8  3B6 A   1      28.816  -0.242   6.043  0.00  0.00    +0.000 NA
ENDBRANCH  10  14
ENDBRANCH   4  13
ENDBRANCH   1   5
BRANCH   1  16
ATOM     16  C13 3B6 A   1      25.275   8.685   6.458  0.00  0.00    +0.000 C 
BRANCH  16  17
ATOM     17  O14 3B6 A   1      24.258   9.699   6.402  0.00  0.00    +0.000 OA
BRANCH  17  18
ATOM     18  C16 3B6 A   1      24.134  10.434   7.543  0.00  0.00    +0.000 A 
ATOM     19  C17 3B6 A   1      23.846  11.797   7.516  0.00  0.00    +0.000 A 
ATOM     20  C18 3B6 A   1      23.677  12.506   8.702  0.00  0.00    +0.000 A 
ATOM     21  C19 3B6 A   1      23.796  11.852   9.924  0.00  0.00    +0.000 A 
ATOM     22  C20 3B6 A   1      24.090  10.491   9.957  0.00  0.00    +0.000 A 
ATOM     23  C21 3B6 A   1      24.259   9.785   8.770  0.00  0.00    +0.000 A 
BRANCH  21  24
ATOM     24  C22 3B6 A   1      23.561  12.562  11.146  0.00  0.00    +0.000 C 
ATOM     25  N22 3B6 A   1      23.374  13.118  12.120  0.00  0.00    +0.000 NA
ENDBRANCH  21  24
ENDBRANCH  17  18
ENDBRANCH  16  17
ENDBRANCH   1  16
TORSDOF 7
ENDMDL
MODEL 2
REMARK VINA RESULT:      -5.9      1.115      1.375
REMARK  Name = ligand_pdbs\3B6.pdb
REMARK  7 active torsions:
REMARK  status: ('A' for Active; 'I' for Inactive)
REMARK    1  A    between atoms: C3_4  and  C8_5
REMARK    2  A    between atoms: C6_9  and  N9_10
REMARK    3  A    between atoms: C10_11  and  C11_13
REMARK    4  A    between atoms: C11_13  and  C13_16
REMARK    5  A    between atoms: C13_16  and  O14_17
REMARK    6  A    between atoms: O14_17  and  C16_18
REMARK    7  A    between atoms: C19_21  and  C22_22
REMARK                            x       y       z     vdW  Elec       q    Type
REMARK                         _______ _______ _______ _____ _____    ______ ____
ROOT
ATOM      1  C11 3B6 A   1      25.389   7.995   5.077  0.00  0.00    +0.000 C 
ATOM      2  O11 3B6 A   1      24.083   7.628   4.623  0.00  0.00    +0.000 OA
ATOM      3  C12 3B6 A   1      26.043   8.962   4.087  0.00  0.00    +0.000 C 
ENDROOT
BRANCH   1   5
ATOM      4  N9  3B6 A   1      25.551   5.595   5.126  0.00  0.00    +0.000 NA
ATOM      5  C10 3B6 A   1      26.242   6.730   5.208  0.00  0.00    +0.000 C 
ATOM      6  O10 3B6 A   1      27.456   6.802   5.392  0.00  0.00    +0.000 OA
BRANCH   4  13
ATOM      7  C5  3B6 A   1      27.389   4.084   5.474  0.00  0.00    +0.000 A 
ATOM      8  C4  3B6 A   1      27.847   2.768   5.533  0.00  0.00    +0.000 A 
ATOM      9  I7  3B6 A   1      29.866   2.376   5.952  0.00  0.00    +0.000 I 
ATOM     10  C3  3B6 A   1      26.951   1.726   5.325  0.00  0.00    +0.000 A 
ATOM     11  C2  3B6 A   1      25.610   1.995   5.065  0.00  0.00    +0.000 A 
ATOM     12  C1  3B6 A   1      25.160   3.310   5.008  0.00  0.00    +0.000 A 
ATOM     13  C6  3B6 A   1      26.049   4.362   5.212  0.00  0.00    +0.000 A 
BRANCH  10  14
ATOM     14  C8  3B6 A   1      27.371   0.357   5.353  0.00  0.00    +0.000 C 
ATOM     15  N8  3B6 A   1      27.693  -0.732   5.375  0.00  0.00    +0.000 NA
ENDBRANCH  10  14
ENDBRANCH   4  13
ENDBRANCH   1   5
BRANCH   1  16
ATOM     16  C13 3B6 A   1      25.287   8.664   6.439  0.00  0.00    +0.000 C 
BRANCH  16  17
ATOM     17  O14 3B6 A   1      24.293   9.701   6.388  0.00  0.00    +0.000 OA
BRANCH  17  18
ATOM     18  C16 3B6 A   1      24.175  10.423   7.538  0.00  0.00    +0.000 A 
ATOM     19  C17 3B6 A   1      23.838  11.774   7.531  0.00  0.00    +0.000 A 
ATOM     20  C18 3B6 A   1      23.676  12.468   8.727  0.00  0.00    +0.000 A 
ATOM     21  C19 3B6 A   1      23.851  11.809   9.939  0.00  0.00    +0.000 A 
ATOM     22  C20 3B6 A   1      24.195  10.460   9.953  0.00  0.00    +0.000 A 
ATOM     23  C21 3B6 A   1      24.356   9.769   8.755  0.00  0.00    +0.000 A 
BRANCH  21  24
ATOM     24  C22 3B6 A   1      23.626  12.501  11.173  0.00  0.00    +0.000 C 
ATOM     25  N22 3B6 A   1      23.442  13.058  12.147  0.00  0.00    +0.000 NA
ENDBRANCH  21  24
ENDBRANCH  17  18
ENDBRANCH  16  17
ENDBRANCH   1  16
TORSDOF 7
ENDMDL
MODEL 3
REMARK VINA RESULT:      -4.8      5.030      9.495
REMARK  Name = ligand_pdbs\3B6.pdb
REMARK  7 active torsions:
REMARK  status: ('A' for Active; 'I' for Inactive)
REMARK    1  A    between atoms: C3_4  and  C8_5
REMARK    2  A    between atoms: C6_9  and  N9_10
REMARK    3  A    between atoms: C10_11  and  C11_13
REMARK    4  A    between atoms: C11_13  and  C13_16
REMARK    5  A    between atoms: C13_16  and  O14_17
REMARK    6  A    between atoms: O14_17  and  C16_18
REMARK    7  A    between atoms: C19_21  and  C22_22
REMARK                            x       y       z     vdW  Elec       q    Type
REMARK                         _______ _______ _______ _____ _____    ______ ____
ROOT
ATOM      1  C11 3B6 A   1      30.231   0.516   6.375  0.00  0.00    +0.000 C 
ATOM      2  O11 3B6 A   1      29.222  -0.144   7.145  0.00  0.00    +0.000 OA
ATOM      3  C12 3B6 A   1      31.509   0.676   7.202  0.00  0.00    +0.000 C 
ENDROOT
BRANCH   1   5
ATOM      4  N9  3B6 A   1      28.407   2.067   6.150  0.00  0.00    +0.000 NA
ATOM      5  C10 3B6 A   1      29.711   1.893   5.951  0.00  0.00    +0.000 C 
ATOM      6  O10 3B6 A   1      30.465   2.728   5.456  0.00  0.00    +0.000 OA
BRANCH   4  13
ATOM      7  C5  3B6 A   1      26.358   3.158   5.520  0.00  0.00    +0.000 A 
ATOM      8  C4  3B6 A   1      25.690   4.344   5.218  0.00  0.00    +0.000 A 
ATOM      9  I7  3B6 A   1      23.651   4.306   4.721  0.00  0.00    +0.000 I 
ATOM     10  C3  3B6 A   1      26.386   5.547   5.264  0.00  0.00    +0.000 A 
ATOM     11  C2  3B6 A   1      27.734   5.564   5.612  0.00  0.00    +0.000 A 
ATOM     12  C1  3B6 A   1      28.393   4.377   5.911  0.00  0.00    +0.000 A 
ATOM     13  C6  3B6 A   1      27.707   3.166   5.866  0.00  0.00    +0.000 A 
BRANCH  10  14
ATOM     14  C8  3B6 A   1      25.756   6.792   4.942  0.00  0.00    +0.000 C 
ATOM     15  N8  3B6 A   1      25.260   7.785   4.697  0.00  0.00    +0.000 NA
ENDBRANCH  10  14
ENDBRANCH   4  13
ENDBRANCH   1   5
BRANCH   1  16
ATOM     16  C13 3B6 A   1      30.538  -0.300   5.129  0.00  0.00    +0.000 C 
BRANCH  16  17
ATOM     17  O14 3B6 A   1      29.506  -1.282   4.935  0.00  0.00    +0.000 OA
BRANCH  17  18
ATOM     18  C16 3B6 A   1      28.351  -0.786   4.409  0.00  0.00    +0.000 A 
ATOM     19  C17 3B6 A   1      27.112  -1.010   5.005  0.00  0.00    +0.000 A 
ATOM     20  C18 3B6 A   1      25.958  -0.446   4.467  0.00  0.00    +0.000 A 
ATOM     21  C19 3B6 A   1      26.040   0.347   3.328  0.00  0.00    +0.000 A 
ATOM     22  C20 3B6 A   1      27.275   0.569   2.724  0.00  0.00    +0.000 A 
ATOM     23  C21 3B6 A   1      28.427   0.004   3.263  0.00  0.00    +0.000 A 
BRANCH  21  24
ATOM     24  C22 3B6 A   1      24.866   0.981   2.807  0.00  0.00    +0.000 C 
ATOM     25  N22 3B6 A   1      23.936   1.492   2.398  0.00  0.00    +0.000 NA
ENDBRANCH  21  24
ENDBRANCH  17  18
ENDBRANCH  16  17
ENDBRANCH   1  16
TORSDOF 7
ENDMDL
MODEL 4
REMARK VINA RESULT:      -4.3      5.959      9.392
REMARK  Name = ligand_pdbs\3B6.pdb
REMARK  7 active torsions:
REMARK  status: ('A' for Active; 'I' for Inactive)
REMARK    1  A    between atoms: C3_4  and  C8_5
REMARK    2  A    between atoms: C6_9  and  N9_10
REMARK    3  A    between atoms: C10_11  and  C11_13
REMARK    4  A    between atoms: C11_13  and  C13_16
REMARK    5  A    between atoms: C13_16  and  O14_17
REMARK    6  A    between atoms: O14_17  and  C16_18
REMARK    7  A    between atoms: C19_21  and  C22_22
REMARK                            x       y       z     vdW  Elec       q    Type
REMARK                         _______ _______ _______ _____ _____    ______ ____
ROOT
ATOM      1  C11 3B6 A   1      27.054  -2.042   3.733  0.00  0.00    +0.000 C 
ATOM      2  O11 3B6 A   1      26.120  -2.592   2.801  0.00  0.00    +0.000 OA
ATOM      3  C12 3B6 A   1      27.321  -3.035   4.867  0.00  0.00    +0.000 C 
ENDROOT
BRANCH   1   5
ATOM      4  N9  3B6 A   1      26.390   0.249   3.423  0.00  0.00    +0.000 NA
ATOM      5  C10 3B6 A   1      26.478  -0.743   4.306  0.00  0.00    +0.000 C 
ATOM      6  O10 3B6 A   1      26.156  -0.662   5.490  0.00  0.00    +0.000 OA
BRANCH   4  13
ATOM      7  C5  3B6 A   1      26.747   2.592   3.834  0.00  0.00    +0.000 A 
ATOM      8  C4  3B6 A   1      26.199   3.846   4.099  0.00  0.00    +0.000 A 
ATOM      9  I7  3B6 A   1      27.453   5.513   4.329  0.00  0.00    +0.000 I 
ATOM     10  C3  3B6 A   1      24.818   3.979   4.195  0.00  0.00    +0.000 A 
ATOM     11  C2  3B6 A   1      23.994   2.870   4.022  0.00  0.00    +0.000 A 
ATOM     12  C1  3B6 A   1      24.548   1.622   3.758  0.00  0.00    +0.000 A 
ATOM     13  C6  3B6 A   1      25.929   1.477   3.663  0.00  0.00    +0.000 A 
BRANCH  10  14
ATOM     14  C8  3B6 A   1      24.203   5.239   4.487  0.00  0.00    +0.000 C 
ATOM     15  N8  3B6 A   1      23.717   6.242   4.706  0.00  0.00    +0.000 NA
ENDBRANCH  10  14
ENDBRANCH   4  13
ENDBRANCH   1   5
BRANCH   1  16
ATOM     16  C13 3B6 A   1      28.362  -1.729   3.022  0.00  0.00    +0.000 C 
BRANCH  16  17
ATOM     17  O14 3B6 A   1      29.426  -1.663   3.986  0.00  0.00    +0.000 OA
BRANCH  17  18
ATOM     18  C16 3B6 A   1      29.508  -0.477   4.652  0.00  0.00    +0.000 A 
ATOM     19  C17 3B6 A   1      29.701   0.732   3.986  0.00  0.00    +0.000 A 
ATOM     20  C18 3B6 A   1      29.729   1.930   4.694  0.00  0.00    +0.000 A 
ATOM     21  C19 3B6 A   1      29.562   1.924   6.075  0.00  0.00    +0.000 A 
ATOM     22  C20 3B6 A   1      29.375   0.718   6.746  0.00  0.00    +0.000 A 
ATOM     23  C21 3B6 A   1      29.348  -0.478   6.036  0.00  0.00    +0.000 A 
BRANCH  21  24
ATOM     24  C22 3B6 A   1      29.527   3.158   6.801  0.00  0.00    +0.000 C 
ATOM     25  N22 3B6 A   1      29.490   4.137   7.379  0.00  0.00    +0.000 NA
ENDBRANCH  21  24
ENDBRANCH  17  18
ENDBRANCH  16  17
ENDBRANCH   1  16
TORSDOF 7
ENDMDL
MODEL 5
REMARK VINA RESULT:      -4.1      4.146      6.714
REMARK  Name = ligand_pdbs\3B6.pdb
REMARK  7 active torsions:
REMARK  status: ('A' for Active; 'I' for Inactive)
REMARK    1  A    between atoms: C3_4  and  C8_5
REMARK    2  A    between atoms: C6_9  and  N9_10
REMARK    3  A    between atoms: C10_11  and  C11_13
REMARK    4  A    between atoms: C11_13  and  C13_16
REMARK    5  A    between atoms: C13_16  and  O14_17
REMARK    6  A    between atoms: O14_17  and  C16_18
REMARK    7  A    between atoms: C19_21  and  C22_22
REMARK                            x       y       z     vdW  Elec       q    Type
REMARK                         _______ _______ _______ _____ _____    ______ ____
ROOT
ATOM      1  C11 3B6 A   1      25.409   6.776   4.268  0.00  0.00    +0.000 C 
ATOM      2  O11 3B6 A   1      25.995   7.321   3.083  0.00  0.00    +0.000 OA
ATOM      3  C12 3B6 A   1      24.953   7.902   5.201  0.00  0.00    +0.000 C 
ENDROOT
BRANCH   1   5
ATOM      4  N9  3B6 A   1      26.887   4.880   4.249  0.00  0.00    +0.000 NA
ATOM      5  C10 3B6 A   1      26.445   5.901   4.978  0.00  0.00    +0.000 C 
ATOM      6  O10 3B6 A   1      26.797   6.147   6.131  0.00  0.00    +0.000 OA
BRANCH   4  13
ATOM      7  C5  3B6 A   1      28.106   2.839   3.883  0.00  0.00    +0.000 A 
ATOM      8  C4  3B6 A   1      29.043   1.918   4.349  0.00  0.00    +0.000 A 
ATOM      9  I7  3B6 A   1      29.526   0.233   3.193  0.00  0.00    +0.000 I 
ATOM     10  C3  3B6 A   1      29.659   2.136   5.576  0.00  0.00    +0.000 A 
ATOM     11  C2  3B6 A   1      29.346   3.265   6.327  0.00  0.00    +0.000 A 
ATOM     12  C1  3B6 A   1      28.410   4.180   5.856  0.00  0.00    +0.000 A 
ATOM     13  C6  3B6 A   1      27.785   3.970   4.630  0.00  0.00    +0.000 A 
BRANCH  10  14
ATOM     14  C8  3B6 A   1      30.613   1.211   6.113  0.00  0.00    +0.000 C 
ATOM     15  N8  3B6 A   1      31.374   0.487   6.545  0.00  0.00    +0.000 NA
ENDBRANCH  10  14
ENDBRANCH   4  13
ENDBRANCH   1   5
BRANCH   1  16
ATOM     16  C13 3B6 A   1      24.210   5.917   3.896  0.00  0.00    +0.000 C 
BRANCH  16  17
ATOM     17  O14 3B6 A   1      23.828   5.116   5.027  0.00  0.00    +0.000 OA
BRANCH  17  18
ATOM     18  C16 3B6 A   1      24.271   3.828   4.978  0.00  0.00    +0.000 A 
ATOM     19  C17 3B6 A   1      24.210   3.070   3.811  0.00  0.00    +0.000 A 
ATOM     20  C18 3B6 A   1      24.718   1.774   3.784  0.00  0.00    +0.000 A 
ATOM     21  C19 3B6 A   1      25.292   1.230   4.928  0.00  0.00    +0.000 A 
ATOM     22  C20 3B6 A   1      25.350   1.981   6.099  0.00  0.00    +0.000 A 
ATOM     23  C21 3B6 A   1      24.841   3.276   6.123  0.00  0.00    +0.000 A 
BRANCH  21  24
ATOM     24  C22 3B6 A   1      25.873  -0.078   4.889  0.00  0.00    +0.000 C 
ATOM     25  N22 3B6 A   1      26.343  -1.114   4.859  0.00  0.00    +0.000 NA
ENDBRANCH  21  24
ENDBRANCH  17  18
ENDBRANCH  16  17
ENDBRANCH   1  16
TORSDOF 7
ENDMDL
MODEL 6
REMARK VINA RESULT:      -3.6      5.601      8.909
REMARK  Name = ligand_pdbs\3B6.pdb
REMARK  7 active torsions:
REMARK  status: ('A' for Active; 'I' for Inactive)
REMARK    1  A    between atoms: C3_4  and  C8_5
REMARK    2  A    between atoms: C6_9  and  N9_10
REMARK    3  A    between atoms: C10_11  and  C11_13
REMARK    4  A    between atoms: C11_13  and  C13_16
REMARK    5  A    between atoms: C13_16  and  O14_17
REMARK    6  A    between atoms: O14_17  and  C16_18
REMARK    7  A    between atoms: C19_21  and  C22_22
REMARK                            x       y       z     vdW  Elec       q    Type
REMARK                         _______ _______ _______ _____ _____    ______ ____
ROOT
ATOM      1  C11 3B6 A   1      27.719  -1.212   2.954  0.00  0.00    +0.000 C 
ATOM      2  O11 3B6 A   1      27.428  -1.438   1.572  0.00  0.00    +0.000 OA
ATOM      3  C12 3B6 A   1      27.320  -2.432   3.786  0.00  0.00    +0.000 C 
ENDROOT
BRANCH   1   5
ATOM      4  N9  3B6 A   1      27.501   1.179   3.094  0.00  0.00    +0.000 NA
ATOM      5  C10 3B6 A   1      26.943   0.019   3.430  0.00  0.00    +0.000 C 
ATOM      6  O10 3B6 A   1      25.906  -0.101   4.081  0.00  0.00    +0.000 OA
BRANCH   4  13
ATOM      7  C5  3B6 A   1      25.710   2.647   3.744  0.00  0.00    +0.000 A 
ATOM      8  C4  3B6 A   1      25.283   3.945   4.022  0.00  0.00    +0.000 A 
ATOM      9  I7  3B6 A   1      23.290   4.297   4.580  0.00  0.00    +0.000 I 
ATOM     10  C3  3B6 A   1      26.191   4.993   3.938  0.00  0.00    +0.000 A 
ATOM     11  C2  3B6 A   1      27.515   4.747   3.584  0.00  0.00    +0.000 A 
ATOM     12  C1  3B6 A   1      27.935   3.450   3.309  0.00  0.00    +0.000 A 
ATOM     13  C6  3B6 A   1      27.033   2.392   3.387  0.00  0.00    +0.000 A 
BRANCH  10  14
ATOM     14  C8  3B6 A   1      25.801   6.348   4.191  0.00  0.00    +0.000 C 
ATOM     15  N8  3B6 A   1      25.502   7.426   4.390  0.00  0.00    +0.000 NA
ENDBRANCH  10  14
ENDBRANCH   4  13
ENDBRANCH   1   5
BRANCH   1  16
ATOM     16  C13 3B6 A   1      29.208  -0.952   3.126  0.00  0.00    +0.000 C 
BRANCH  16  17
ATOM     17  O14 3B6 A   1      29.548  -1.031   4.520  0.00  0.00    +0.000 OA
BRANCH  17  18
ATOM     18  C16 3B6 A   1      29.449   0.151   5.190  0.00  0.00    +0.000 A 
ATOM     19  C17 3B6 A   1      28.483   0.366   6.170  0.00  0.00    +0.000 A 
ATOM     20  C18 3B6 A   1      28.444   1.569   6.870  0.00  0.00    +0.000 A 
ATOM     21  C19 3B6 A   1      29.374   2.565   6.592  0.00  0.00    +0.000 A 
ATOM     22  C20 3B6 A   1      30.338   2.358   5.608  0.00  0.00    +0.000 A 
ATOM     23  C21 3B6 A   1      30.375   1.154   4.910  0.00  0.00    +0.000 A 
BRANCH  21  24
ATOM     24  C22 3B6 A   1      29.378   3.779   7.351  0.00  0.00    +0.000 C 
ATOM     25  N22 3B6 A   1      29.389   4.740   7.959  0.00  0.00    +0.000 NA
ENDBRANCH  21  24
ENDBRANCH  17  18
ENDBRANCH  16  17
ENDBRANCH   1  16
TORSDOF 7
ENDMDL
MODEL 7
REMARK VINA RESULT:      -3.6      5.416      6.952
REMARK  Name = ligand_pdbs\3B6.pdb
REMARK  7 active torsions:
REMARK  status: ('A' for Active; 'I' for Inactive)
REMARK    1  A    between atoms: C3_4  and  C8_5
REMARK    2  A    between atoms: C6_9  and  N9_10
REMARK    3  A    between atoms: C10_11  and  C11_13
REMARK    4  A    between atoms: C11_13  and  C13_16
REMARK    5  A    between atoms: C13_16  and  O14_17
REMARK    6  A    between atoms: O14_17  and  C16_18
REMARK    7  A    between atoms: C19_21  and  C22_22
REMARK                            x       y       z     vdW  Elec       q    Type
REMARK                         _______ _______ _______ _____ _____    ______ ____
ROOT
ATOM      1  C11 3B6 A   1      24.477   4.035   4.298  0.00  0.00    +0.000 C 
ATOM      2  O11 3B6 A   1      23.104   3.866   3.933  0.00  0.00    +0.000 OA
ATOM      3  C12 3B6 A   1      25.214   4.844   3.229  0.00  0.00    +0.000 C 
ENDROOT
BRANCH   1   5
ATOM      4  N9  3B6 A   1      26.216   2.484   3.702  0.00  0.00    +0.000 NA
ATOM      5  C10 3B6 A   1      25.125   2.655   4.445  0.00  0.00    +0.000 C 
ATOM      6  O10 3B6 A   1      24.635   1.802   5.183  0.00  0.00    +0.000 OA
BRANCH   4  13
ATOM      7  C5  3B6 A   1      26.497   0.112   3.979  0.00  0.00    +0.000 A 
ATOM      8  C4  3B6 A   1      27.339  -0.998   3.910  0.00  0.00    +0.000 A 
ATOM      9  I7  3B6 A   1      26.606  -2.904   4.400  0.00  0.00    +0.000 I 
ATOM     10  C3  3B6 A   1      28.657  -0.829   3.503  0.00  0.00    +0.000 A 
ATOM     11  C2  3B6 A   1      29.128   0.436   3.162  0.00  0.00    +0.000 A 
ATOM     12  C1  3B6 A   1      28.284   1.538   3.233  0.00  0.00    +0.000 A 
ATOM     13  C6  3B6 A   1      26.962   1.381   3.643  0.00  0.00    +0.000 A 
BRANCH  10  14
ATOM     14  C8  3B6 A   1      29.570  -1.931   3.435  0.00  0.00    +0.000 C 
ATOM     15  N8  3B6 A   1      30.296  -2.803   3.393  0.00  0.00    +0.000 NA
ENDBRANCH  10  14
ENDBRANCH   4  13
ENDBRANCH   1   5
BRANCH   1  16
ATOM     16  C13 3B6 A   1      24.565   4.765   5.629  0.00  0.00    +0.000 C 
BRANCH  16  17
ATOM     17  O14 3B6 A   1      25.858   5.380   5.752  0.00  0.00    +0.000 OA
BRANCH  17  18
ATOM     18  C16 3B6 A   1      26.873   4.507   6.005  0.00  0.00    +0.000 A 
ATOM     19  C17 3B6 A   1      26.743   3.470   6.927  0.00  0.00    +0.000 A 
ATOM     20  C18 3B6 A   1      27.784   2.566   7.124  0.00  0.00    +0.000 A 
ATOM     21  C19 3B6 A   1      28.962   2.695   6.395  0.00  0.00    +0.000 A 
ATOM     22  C20 3B6 A   1      29.100   3.733   5.477  0.00  0.00    +0.000 A 
ATOM     23  C21 3B6 A   1      28.058   4.635   5.283  0.00  0.00    +0.000 A 
BRANCH  21  24
ATOM     24  C22 3B6 A   1      30.010   1.732   6.548  0.00  0.00    +0.000 C 
ATOM     25  N22 3B6 A   1      30.850   0.974   6.671  0.00  0.00    +0.000 NA
ENDBRANCH  21  24
ENDBRANCH  17  18
ENDBRANCH  16  17
ENDBRANCH   1  16
TORSDOF 7
ENDMDL
MODEL 8
REMARK VINA RESULT:      -3.3      5.344      8.917
REMARK  Name = ligand_pdbs\3B6.pdb
REMARK  7 active torsions:
REMARK  status: ('A' for Active; 'I' for Inactive)
REMARK    1  A    between atoms: C3_4  and  C8_5
REMARK    2  A    between atoms: C6_9  and  N9_10
REMARK    3  A    between atoms: C10_11  and  C11_13
REMARK    4  A    between atoms: C11_13  and  C13_16
REMARK    5  A    between atoms: C13_16  and  O14_17
REMARK    6  A    between atoms: O14_17  and  C16_18
REMARK    7  A    between atoms: C19_21  and  C22_22
REMARK                            x       y       z     vdW  Elec       q    Type
REMARK                         _______ _______ _______ _____ _____    ______ ____
ROOT
ATOM      1  C11 3B6 A   1      29.510  -0.762   4.620  0.00  0.00    +0.000 C 
ATOM      2  O11 3B6 A   1      30.337  -0.783   5.787  0.00  0.00    +0.000 OA
ATOM      3  C12 3B6 A   1      30.236  -1.421   3.445  0.00  0.00    +0.000 C 
ENDROOT
BRANCH   1   5
ATOM      4  N9  3B6 A   1      28.612   1.372   5.269  0.00  0.00    +0.000 NA
ATOM      5  C10 3B6 A   1      29.175   0.692   4.274  0.00  0.00    +0.000 C 
ATOM      6  O10 3B6 A   1      29.407   1.145   3.155  0.00  0.00    +0.000 OA
BRANCH   4  13
ATOM      7  C5  3B6 A   1      27.820   3.298   4.065  0.00  0.00    +0.000 A 
ATOM      8  C4  3B6 A   1      27.440   4.639   4.093  0.00  0.00    +0.000 A 
ATOM      9  I7  3B6 A   1      26.818   5.591   2.328  0.00  0.00    +0.000 I 
ATOM     10  C3  3B6 A   1      27.466   5.330   5.299  0.00  0.00    +0.000 A 
ATOM     11  C2  3B6 A   1      27.863   4.685   6.467  0.00  0.00    +0.000 A 
ATOM     12  C1  3B6 A   1      28.241   3.347   6.433  0.00  0.00    +0.000 A 
ATOM     13  C6  3B6 A   1      28.222   2.646   5.230  0.00  0.00    +0.000 A 
BRANCH  10  14
ATOM     14  C8  3B6 A   1      27.107   6.714   5.380  0.00  0.00    +0.000 C 
ATOM     15  N8  3B6 A   1      26.811   7.808   5.450  0.00  0.00    +0.000 NA
ENDBRANCH  10  14
ENDBRANCH   4  13
ENDBRANCH   1   5
BRANCH   1  16
ATOM     16  C13 3B6 A   1      28.217  -1.514   4.896  0.00  0.00    +0.000 C 
BRANCH  16  17
ATOM     17  O14 3B6 A   1      27.339  -1.383   3.766  0.00  0.00    +0.000 OA
BRANCH  17  18
ATOM     18  C16 3B6 A   1      26.431  -0.372   3.874  0.00  0.00    +0.000 A 
ATOM     19  C17 3B6 A   1      25.892   0.009   5.100  0.00  0.00    +0.000 A 
ATOM     20  C18 3B6 A   1      25.006   1.080   5.179  0.00  0.00    +0.000 A 
ATOM     21  C19 3B6 A   1      24.656   1.777   4.027  0.00  0.00    +0.000 A 
ATOM     22  C20 3B6 A   1      25.187   1.396   2.798  0.00  0.00    +0.000 A 
ATOM     23  C21 3B6 A   1      26.072   0.325   2.722  0.00  0.00    +0.000 A 
BRANCH  21  24
ATOM     24  C22 3B6 A   1      23.795   2.918   4.111  0.00  0.00    +0.000 C 
ATOM     25  N22 3B6 A   1      23.103   3.818   4.175  0.00  0.00    +0.000 NA
ENDBRANCH  21  24
ENDBRANCH  17  18
ENDBRANCH  16  17
ENDBRANCH   1  16
TORSDOF 7
ENDMDL
