MODEL 1
REMARK VINA RESULT:      -8.2      0.000      0.000
REMARK  Name = ligand_pdbs\3E0.pdb
REMARK  2 active torsions:
REMARK  status: ('A' for Active; 'I' for Inactive)
REMARK    1  A    between atoms: CAJ_11  and  CAI_12
REMARK    2  A    between atoms: CAC_18  and  OAD_19
REMARK                            x       y       z     vdW  Elec       q    Type
REMARK                         _______ _______ _______ _____ _____    ______ ____
ROOT
ATOM      1  CAP 3E0 A1001      27.316  -1.079   3.154  0.00  0.00    +0.000 C 
ATOM      2  CAQ 3E0 A1001      28.018  -1.744   4.258  0.00  0.00    +0.000 C 
ATOM      3  OAR 3E0 A1001      29.433  -1.380   4.297  0.00  0.00    +0.000 OA
ATOM      4  CAS 3E0 A1001      29.582   0.057   4.610  0.00  0.00    +0.000 C 
ATOM      5  CAT 3E0 A1001      28.961   0.815   3.490  0.00  0.00    +0.000 C 
ATOM      6  NAO 3E0 A1001      27.568   0.424   3.334  0.00  0.00    +0.000 N 
ATOM      7  CAL 3E0 A1001      26.553   1.381   3.584  0.00  0.00    +0.000 C 
ATOM      8  NAK 3E0 A1001      26.785   2.607   3.818  0.00  0.00    +0.000 NA
ATOM      9  SAM 3E0 A1001      24.889   0.830   3.498  0.00  0.00    +0.000 S 
ATOM     10  CAN 3E0 A1001      24.476   2.477   3.896  0.00  0.00    +0.000 C 
ATOM     11  CAJ 3E0 A1001      25.575   3.257   4.027  0.00  0.00    +0.000 C 
ENDROOT
BRANCH  11  12
ATOM     12  CAI 3E0 A1001      25.701   4.687   4.336  0.00  0.00    +0.000 A 
ATOM     13  CAH 3E0 A1001      24.584   5.560   4.188  0.00  0.00    +0.000 A 
ATOM     14  CAG 3E0 A1001      24.639   6.915   4.462  0.00  0.00    +0.000 A 
ATOM     15  CAF 3E0 A1001      25.812   7.448   4.967  0.00  0.00    +0.000 A 
ATOM     16  CAB 3E0 A1001      26.868   6.626   5.140  0.00  0.00    +0.000 A 
ATOM     17  FAA 3E0 A1001      28.094   7.122   5.572  0.00  0.00    +0.000 F 
ATOM     18  CAC 3E0 A1001      26.927   5.272   4.859  0.00  0.00    +0.000 A 
BRANCH  18  19
ATOM     19  OAD 3E0 A1001      28.026   4.440   5.014  0.00  0.00    +0.000 OA
ATOM     20  CAE 3E0 A1001      28.252   3.887   6.339  0.00  0.00    +0.000 C 
ENDBRANCH  18  19
ENDBRANCH  11  12
TORSDOF 2
ENDMDL
MODEL 2
REMARK VINA RESULT:      -8.1      2.232      3.069
REMARK  Name = ligand_pdbs\3E0.pdb
REMARK  2 active torsions:
REMARK  status: ('A' for Active; 'I' for Inactive)
REMARK    1  A    between atoms: CAJ_11  and  CAI_12
REMARK    2  A    between atoms: CAC_18  and  OAD_19
REMARK                            x       y       z     vdW  Elec       q    Type
REMARK                         _______ _______ _______ _____ _____    ______ ____
ROOT
ATOM      1  CAP 3E0 A1001      29.230  -0.721   5.153  0.00  0.00    +0.000 C 
ATOM      2  CAQ 3E0 A1001      29.645  -1.203   3.830  0.00  0.00    +0.000 C 
ATOM      3  OAR 3E0 A1001      28.533  -1.808   3.100  0.00  0.00    +0.000 OA
ATOM      4  CAS 3E0 A1001      27.511  -0.786   2.789  0.00  0.00    +0.000 C 
ATOM      5  CAT 3E0 A1001      26.973  -0.296   4.087  0.00  0.00    +0.000 C 
ATOM      6  NAO 3E0 A1001      28.053   0.233   4.907  0.00  0.00    +0.000 N 
ATOM      7  CAL 3E0 A1001      28.065   1.615   5.220  0.00  0.00    +0.000 C 
ATOM      8  NAK 3E0 A1001      27.118   2.410   4.930  0.00  0.00    +0.000 NA
ATOM      9  SAM 3E0 A1001      29.449   2.226   6.110  0.00  0.00    +0.000 S 
ATOM     10  CAN 3E0 A1001      28.646   3.772   6.010  0.00  0.00    +0.000 C 
ATOM     11  CAJ 3E0 A1001      27.458   3.684   5.369  0.00  0.00    +0.000 C 
ENDROOT
BRANCH  11  12
ATOM     12  CAI 3E0 A1001      26.453   4.713   5.072  0.00  0.00    +0.000 A 
ATOM     13  CAH 3E0 A1001      26.853   6.045   4.760  0.00  0.00    +0.000 A 
ATOM     14  CAG 3E0 A1001      25.956   7.059   4.473  0.00  0.00    +0.000 A 
ATOM     15  CAF 3E0 A1001      24.606   6.761   4.418  0.00  0.00    +0.000 A 
ATOM     16  CAB 3E0 A1001      24.217   5.497   4.682  0.00  0.00    +0.000 A 
ATOM     17  FAA 3E0 A1001      22.868   5.159   4.717  0.00  0.00    +0.000 F 
ATOM     18  CAC 3E0 A1001      25.027   4.426   5.019  0.00  0.00    +0.000 A 
BRANCH  18  19
ATOM     19  OAD 3E0 A1001      24.615   3.135   5.315  0.00  0.00    +0.000 OA
ATOM     20  CAE 3E0 A1001      24.050   2.358   4.225  0.00  0.00    +0.000 C 
ENDBRANCH  18  19
ENDBRANCH  11  12
TORSDOF 2
ENDMDL
MODEL 3
REMARK VINA RESULT:      -7.9      1.935      2.804
REMARK  Name = ligand_pdbs\3E0.pdb
REMARK  2 active torsions:
REMARK  status: ('A' for Active; 'I' for Inactive)
REMARK    1  A    between atoms: CAJ_11  and  CAI_12
REMARK    2  A    between atoms: CAC_18  and  OAD_19
REMARK                            x       y       z     vdW  Elec       q    Type
REMARK                         _______ _______ _______ _____ _____    ______ ____
ROOT
ATOM      1  CAP 3E0 A1001      29.709  -0.886   5.001  0.00  0.00    +0.000 C 
ATOM      2  CAQ 3E0 A1001      29.902  -1.588   3.727  0.00  0.00    +0.000 C 
ATOM      3  OAR 3E0 A1001      28.819  -2.531   3.458  0.00  0.00    +0.000 OA
ATOM      4  CAS 3E0 A1001      27.547  -1.804   3.260  0.00  0.00    +0.000 C 
ATOM      5  CAT 3E0 A1001      27.230  -1.120   4.544  0.00  0.00    +0.000 C 
ATOM      6  NAO 3E0 A1001      28.322  -0.234   4.921  0.00  0.00    +0.000 N 
ATOM      7  CAL 3E0 A1001      28.091   1.163   4.958  0.00  0.00    +0.000 C 
ATOM      8  NAK 3E0 A1001      26.947   1.692   4.802  0.00  0.00    +0.000 NA
ATOM      9  SAM 3E0 A1001      29.467   2.196   5.302  0.00  0.00    +0.000 S 
ATOM     10  CAN 3E0 A1001      28.333   3.513   5.146  0.00  0.00    +0.000 C 
ATOM     11  CAJ 3E0 A1001      27.080   3.072   4.887  0.00  0.00    +0.000 C 
ENDROOT
BRANCH  11  12
ATOM     12  CAI 3E0 A1001      25.826   3.813   4.697  0.00  0.00    +0.000 A 
ATOM     13  CAH 3E0 A1001      24.569   3.161   4.860  0.00  0.00    +0.000 A 
ATOM     14  CAG 3E0 A1001      23.354   3.802   4.694  0.00  0.00    +0.000 A 
ATOM     15  CAF 3E0 A1001      23.347   5.159   4.421  0.00  0.00    +0.000 A 
ATOM     16  CAB 3E0 A1001      24.530   5.794   4.294  0.00  0.00    +0.000 A 
ATOM     17  FAA 3E0 A1001      24.583   7.140   3.944  0.00  0.00    +0.000 F 
ATOM     18  CAC 3E0 A1001      25.793   5.238   4.399  0.00  0.00    +0.000 A 
BRANCH  18  19
ATOM     19  OAD 3E0 A1001      27.005   5.893   4.240  0.00  0.00    +0.000 OA
ATOM     20  CAE 3E0 A1001      27.356   6.882   5.246  0.00  0.00    +0.000 C 
ENDBRANCH  18  19
ENDBRANCH  11  12
TORSDOF 2
ENDMDL
MODEL 4
REMARK VINA RESULT:      -7.7      2.503      6.286
REMARK  Name = ligand_pdbs\3E0.pdb
REMARK  2 active torsions:
REMARK  status: ('A' for Active; 'I' for Inactive)
REMARK    1  A    between atoms: CAJ_11  and  CAI_12
REMARK    2  A    between atoms: CAC_18  and  OAD_19
REMARK                            x       y       z     vdW  Elec       q    Type
REMARK                         _______ _______ _______ _____ _____    ______ ____
ROOT
ATOM      1  CAP 3E0 A1001      24.722   5.398   5.089  0.00  0.00    +0.000 C 
ATOM      2  CAQ 3E0 A1001      25.427   6.434   4.325  0.00  0.00    +0.000 C 
ATOM      3  OAR 3E0 A1001      26.688   6.812   4.960  0.00  0.00    +0.000 OA
ATOM      4  CAS 3E0 A1001      27.629   5.672   4.943  0.00  0.00    +0.000 C 
ATOM      5  CAT 3E0 A1001      27.024   4.592   5.770  0.00  0.00    +0.000 C 
ATOM      6  NAO 3E0 A1001      25.714   4.237   5.245  0.00  0.00    +0.000 N 
ATOM      7  CAL 3E0 A1001      25.517   2.940   4.710  0.00  0.00    +0.000 C 
ATOM      8  NAK 3E0 A1001      26.385   2.015   4.770  0.00  0.00    +0.000 NA
ATOM      9  SAM 3E0 A1001      23.957   2.598   3.982  0.00  0.00    +0.000 S 
ATOM     10  CAN 3E0 A1001      24.613   1.011   3.671  0.00  0.00    +0.000 C 
ATOM     11  CAJ 3E0 A1001      25.875   0.885   4.143  0.00  0.00    +0.000 C 
ENDROOT
BRANCH  11  12
ATOM     12  CAI 3E0 A1001      26.794  -0.260   4.119  0.00  0.00    +0.000 A 
ATOM     13  CAH 3E0 A1001      26.339  -1.561   4.484  0.00  0.00    +0.000 A 
ATOM     14  CAG 3E0 A1001      27.155  -2.679   4.483  0.00  0.00    +0.000 A 
ATOM     15  CAF 3E0 A1001      28.461  -2.552   4.045  0.00  0.00    +0.000 A 
ATOM     16  CAB 3E0 A1001      28.896  -1.332   3.668  0.00  0.00    +0.000 A 
ATOM     17  FAA 3E0 A1001      30.220  -1.131   3.293  0.00  0.00    +0.000 F 
ATOM     18  CAC 3E0 A1001      28.175  -0.150   3.672  0.00  0.00    +0.000 A 
BRANCH  18  19
ATOM     19  OAD 3E0 A1001      28.639   1.106   3.309  0.00  0.00    +0.000 OA
ATOM     20  CAE 3E0 A1001      29.517   1.782   4.248  0.00  0.00    +0.000 C 
ENDBRANCH  18  19
ENDBRANCH  11  12
TORSDOF 2
ENDMDL
MODEL 5
REMARK VINA RESULT:      -7.4      3.113      6.876
REMARK  Name = ligand_pdbs\3E0.pdb
REMARK  2 active torsions:
REMARK  status: ('A' for Active; 'I' for Inactive)
REMARK    1  A    between atoms: CAJ_11  and  CAI_12
REMARK    2  A    between atoms: CAC_18  and  OAD_19
REMARK                            x       y       z     vdW  Elec       q    Type
REMARK                         _______ _______ _______ _____ _____    ______ ____
ROOT
ATOM      1  CAP 3E0 A1001      27.753   6.086   5.211  0.00  0.00    +0.000 C 
ATOM      2  CAQ 3E0 A1001      26.342   6.492   5.207  0.00  0.00    +0.000 C 
ATOM      3  OAR 3E0 A1001      25.805   6.567   3.850  0.00  0.00    +0.000 OA
ATOM      4  CAS 3E0 A1001      25.776   5.222   3.238  0.00  0.00    +0.000 C 
ATOM      5  CAT 3E0 A1001      27.188   4.761   3.129  0.00  0.00    +0.000 C 
ATOM      6  NAO 3E0 A1001      27.814   4.759   4.443  0.00  0.00    +0.000 N 
ATOM      7  CAL 3E0 A1001      28.218   3.525   5.009  0.00  0.00    +0.000 C 
ATOM      8  NAK 3E0 A1001      28.180   2.419   4.386  0.00  0.00    +0.000 NA
ATOM      9  SAM 3E0 A1001      28.860   3.561   6.642  0.00  0.00    +0.000 S 
ATOM     10  CAN 3E0 A1001      29.033   1.835   6.457  0.00  0.00    +0.000 C 
ATOM     11  CAJ 3E0 A1001      28.634   1.415   5.233  0.00  0.00    +0.000 C 
ENDROOT
BRANCH  11  12
ATOM     12  CAI 3E0 A1001      28.618   0.071   4.642  0.00  0.00    +0.000 A 
ATOM     13  CAH 3E0 A1001      29.832  -0.558   4.242  0.00  0.00    +0.000 A 
ATOM     14  CAG 3E0 A1001      29.884  -1.821   3.679  0.00  0.00    +0.000 A 
ATOM     15  CAF 3E0 A1001      28.710  -2.544   3.553  0.00  0.00    +0.000 A 
ATOM     16  CAB 3E0 A1001      27.557  -1.972   3.955  0.00  0.00    +0.000 A 
ATOM     17  FAA 3E0 A1001      26.340  -2.622   3.781  0.00  0.00    +0.000 F 
ATOM     18  CAC 3E0 A1001      27.395  -0.705   4.490  0.00  0.00    +0.000 A 
BRANCH  18  19
ATOM     19  OAD 3E0 A1001      26.201  -0.114   4.876  0.00  0.00    +0.000 OA
ATOM     20  CAE 3E0 A1001      25.383   0.465   3.824  0.00  0.00    +0.000 C 
ENDBRANCH  18  19
ENDBRANCH  11  12
TORSDOF 2
ENDMDL
MODEL 6
REMARK VINA RESULT:      -7.3      1.571      2.194
REMARK  Name = ligand_pdbs\3E0.pdb
REMARK  2 active torsions:
REMARK  status: ('A' for Active; 'I' for Inactive)
REMARK    1  A    between atoms: CAJ_11  and  CAI_12
REMARK    2  A    between atoms: CAC_18  and  OAD_19
REMARK                            x       y       z     vdW  Elec       q    Type
REMARK                         _______ _______ _______ _____ _____    ______ ____
ROOT
ATOM      1  CAP 3E0 A1001      28.041  -0.825   2.764  0.00  0.00    +0.000 C 
ATOM      2  CAQ 3E0 A1001      28.373  -1.676   3.913  0.00  0.00    +0.000 C 
ATOM      3  OAR 3E0 A1001      29.723  -1.414   4.409  0.00  0.00    +0.000 OA
ATOM      4  CAS 3E0 A1001      29.806  -0.045   4.961  0.00  0.00    +0.000 C 
ATOM      5  CAT 3E0 A1001      29.558   0.896   3.835  0.00  0.00    +0.000 C 
ATOM      6  NAO 3E0 A1001      28.263   0.621   3.230  0.00  0.00    +0.000 N 
ATOM      7  CAL 3E0 A1001      27.242   1.599   3.317  0.00  0.00    +0.000 C 
ATOM      8  NAK 3E0 A1001      27.422   2.765   3.787  0.00  0.00    +0.000 NA
ATOM      9  SAM 3E0 A1001      25.664   1.173   2.677  0.00  0.00    +0.000 S 
ATOM     10  CAN 3E0 A1001      25.189   2.775   3.179  0.00  0.00    +0.000 C 
ATOM     11  CAJ 3E0 A1001      26.219   3.457   3.733  0.00  0.00    +0.000 C 
ENDROOT
BRANCH  11  12
ATOM     12  CAI 3E0 A1001      26.281   4.821   4.274  0.00  0.00    +0.000 A 
ATOM     13  CAH 3E0 A1001      27.521   5.368   4.716  0.00  0.00    +0.000 A 
ATOM     14  CAG 3E0 A1001      27.646   6.644   5.236  0.00  0.00    +0.000 A 
ATOM     15  CAF 3E0 A1001      26.531   7.463   5.271  0.00  0.00    +0.000 A 
ATOM     16  CAB 3E0 A1001      25.357   6.968   4.828  0.00  0.00    +0.000 A 
ATOM     17  FAA 3E0 A1001      24.190   7.719   4.911  0.00  0.00    +0.000 F 
ATOM     18  CAC 3E0 A1001      25.120   5.697   4.331  0.00  0.00    +0.000 A 
BRANCH  18  19
ATOM     19  OAD 3E0 A1001      23.904   5.188   3.902  0.00  0.00    +0.000 OA
ATOM     20  CAE 3E0 A1001      23.081   4.520   4.897  0.00  0.00    +0.000 C 
ENDBRANCH  18  19
ENDBRANCH  11  12
TORSDOF 2
ENDMDL
MODEL 7
REMARK VINA RESULT:      -6.7      3.129      6.854
REMARK  Name = ligand_pdbs\3E0.pdb
REMARK  2 active torsions:
REMARK  status: ('A' for Active; 'I' for Inactive)
REMARK    1  A    between atoms: CAJ_11  and  CAI_12
REMARK    2  A    between atoms: CAC_18  and  OAD_19
REMARK                            x       y       z     vdW  Elec       q    Type
REMARK                         _______ _______ _______ _____ _____    ______ ____
ROOT
ATOM      1  CAP 3E0 A1001      27.578   5.871   4.961  0.00  0.00    +0.000 C 
ATOM      2  CAQ 3E0 A1001      26.290   6.370   5.458  0.00  0.00    +0.000 C 
ATOM      3  OAR 3E0 A1001      25.252   6.307   4.431  0.00  0.00    +0.000 OA
ATOM      4  CAS 3E0 A1001      24.964   4.899   4.083  0.00  0.00    +0.000 C 
ATOM      5  CAT 3E0 A1001      26.206   4.332   3.492  0.00  0.00    +0.000 C 
ATOM      6  NAO 3E0 A1001      27.309   4.455   4.433  0.00  0.00    +0.000 N 
ATOM      7  CAL 3E0 A1001      27.893   3.279   4.966  0.00  0.00    +0.000 C 
ATOM      8  NAK 3E0 A1001      27.594   2.107   4.577  0.00  0.00    +0.000 NA
ATOM      9  SAM 3E0 A1001      29.138   3.480   6.186  0.00  0.00    +0.000 S 
ATOM     10  CAN 3E0 A1001      29.202   1.737   6.200  0.00  0.00    +0.000 C 
ATOM     11  CAJ 3E0 A1001      28.339   1.192   5.311  0.00  0.00    +0.000 C 
ENDROOT
BRANCH  11  12
ATOM     12  CAI 3E0 A1001      28.069  -0.213   4.977  0.00  0.00    +0.000 A 
ATOM     13  CAH 3E0 A1001      26.865  -0.841   5.410  0.00  0.00    +0.000 A 
ATOM     14  CAG 3E0 A1001      26.554  -2.159   5.130  0.00  0.00    +0.000 A 
ATOM     15  CAF 3E0 A1001      27.415  -2.895   4.335  0.00  0.00    +0.000 A 
ATOM     16  CAB 3E0 A1001      28.544  -2.303   3.894  0.00  0.00    +0.000 A 
ATOM     17  FAA 3E0 A1001      29.482  -3.017   3.156  0.00  0.00    +0.000 F 
ATOM     18  CAC 3E0 A1001      28.965  -1.009   4.151  0.00  0.00    +0.000 A 
BRANCH  18  19
ATOM     19  OAD 3E0 A1001      30.141  -0.417   3.715  0.00  0.00    +0.000 OA
ATOM     20  CAE 3E0 A1001      30.133   0.161   2.382  0.00  0.00    +0.000 C 
ENDBRANCH  18  19
ENDBRANCH  11  12
TORSDOF 2
ENDMDL
MODEL 8
REMARK VINA RESULT:      -6.7      2.738      6.503
REMARK  Name = ligand_pdbs\3E0.pdb
REMARK  2 active torsions:
REMARK  status: ('A' for Active; 'I' for Inactive)
REMARK    1  A    between atoms: CAJ_11  and  CAI_12
REMARK    2  A    between atoms: CAC_18  and  OAD_19
REMARK                            x       y       z     vdW  Elec       q    Type
REMARK                         _______ _______ _______ _____ _____    ______ ____
ROOT
ATOM      1  CAP 3E0 A1001      24.214   5.790   4.835  0.00  0.00    +0.000 C 
ATOM      2  CAQ 3E0 A1001      24.612   6.808   3.855  0.00  0.00    +0.000 C 
ATOM      3  OAR 3E0 A1001      25.617   7.720   4.398  0.00  0.00    +0.000 OA
ATOM      4  CAS 3E0 A1001      26.875   6.992   4.666  0.00  0.00    +0.000 C 
ATOM      5  CAT 3E0 A1001      26.579   5.981   5.718  0.00  0.00    +0.000 C 
ATOM      6  NAO 3E0 A1001      25.511   5.097   5.276  0.00  0.00    +0.000 N 
ATOM      7  CAL 3E0 A1001      25.797   3.726   5.063  0.00  0.00    +0.000 C 
ATOM      8  NAK 3E0 A1001      26.909   3.186   5.354  0.00  0.00    +0.000 NA
ATOM      9  SAM 3E0 A1001      24.507   2.726   4.417  0.00  0.00    +0.000 S 
ATOM     10  CAN 3E0 A1001      25.669   1.427   4.503  0.00  0.00    +0.000 C 
ATOM     11  CAJ 3E0 A1001      26.854   1.842   5.009  0.00  0.00    +0.000 C 
ENDROOT
BRANCH  11  12
ATOM     12  CAI 3E0 A1001      28.094   1.099   5.270  0.00  0.00    +0.000 A 
ATOM     13  CAH 3E0 A1001      28.931   1.453   6.369  0.00  0.00    +0.000 A 
ATOM     14  CAG 3E0 A1001      30.110   0.794   6.668  0.00  0.00    +0.000 A 
ATOM     15  CAF 3E0 A1001      30.472  -0.306   5.909  0.00  0.00    +0.000 A 
ATOM     16  CAB 3E0 A1001      29.673  -0.669   4.885  0.00  0.00    +0.000 A 
ATOM     17  FAA 3E0 A1001      30.026  -1.718   4.042  0.00  0.00    +0.000 F 
ATOM     18  CAC 3E0 A1001      28.500  -0.054   4.480  0.00  0.00    +0.000 A 
BRANCH  18  19
ATOM     19  OAD 3E0 A1001      27.699  -0.419   3.408  0.00  0.00    +0.000 OA
ATOM     20  CAE 3E0 A1001      26.982  -1.678   3.520  0.00  0.00    +0.000 C 
ENDBRANCH  18  19
ENDBRANCH  11  12
TORSDOF 2
ENDMDL
MODEL 9
REMARK VINA RESULT:      -6.6      2.798      6.658
REMARK  Name = ligand_pdbs\3E0.pdb
REMARK  2 active torsions:
REMARK  status: ('A' for Active; 'I' for Inactive)
REMARK    1  A    between atoms: CAJ_11  and  CAI_12
REMARK    2  A    between atoms: CAC_18  and  OAD_19
REMARK                            x       y       z     vdW  Elec       q    Type
REMARK                         _______ _______ _______ _____ _____    ______ ____
ROOT
ATOM      1  CAP 3E0 A1001      24.566   5.068   5.381  0.00  0.00    +0.000 C 
ATOM      2  CAQ 3E0 A1001      24.821   6.272   4.581  0.00  0.00    +0.000 C 
ATOM      3  OAR 3E0 A1001      26.034   6.962   5.015  0.00  0.00    +0.000 OA
ATOM      4  CAS 3E0 A1001      27.221   6.120   4.756  0.00  0.00    +0.000 C 
ATOM      5  CAT 3E0 A1001      27.082   4.900   5.598  0.00  0.00    +0.000 C 
ATOM      6  NAO 3E0 A1001      25.837   4.215   5.282  0.00  0.00    +0.000 N 
ATOM      7  CAL 3E0 A1001      25.892   2.925   4.700  0.00  0.00    +0.000 C 
ATOM      8  NAK 3E0 A1001      26.967   2.267   4.545  0.00  0.00    +0.000 NA
ATOM      9  SAM 3E0 A1001      24.369   2.190   4.229  0.00  0.00    +0.000 S 
ATOM     10  CAN 3E0 A1001      25.348   0.846   3.701  0.00  0.00    +0.000 C 
ATOM     11  CAJ 3E0 A1001      26.664   1.054   3.939  0.00  0.00    +0.000 C 
ENDROOT
BRANCH  11  12
ATOM     12  CAI 3E0 A1001      27.830   0.201   3.677  0.00  0.00    +0.000 A 
ATOM     13  CAH 3E0 A1001      28.984   0.731   3.031  0.00  0.00    +0.000 A 
ATOM     14  CAG 3E0 A1001      30.113  -0.020   2.755  0.00  0.00    +0.000 A 
ATOM     15  CAF 3E0 A1001      30.160  -1.336   3.182  0.00  0.00    +0.000 A 
ATOM     16  CAB 3E0 A1001      29.085  -1.842   3.821  0.00  0.00    +0.000 A 
ATOM     17  FAA 3E0 A1001      29.047  -3.178   4.204  0.00  0.00    +0.000 F 
ATOM     18  CAC 3E0 A1001      27.898  -1.188   4.107  0.00  0.00    +0.000 A 
BRANCH  18  19
ATOM     19  OAD 3E0 A1001      26.788  -1.725   4.742  0.00  0.00    +0.000 OA
ATOM     20  CAE 3E0 A1001      26.241  -2.951   4.187  0.00  0.00    +0.000 C 
ENDBRANCH  18  19
ENDBRANCH  11  12
TORSDOF 2
ENDMDL
