MODEL 1
REMARK VINA RESULT:      -6.7      0.000      0.000
REMARK  Name = ligand_pdbs\3XV.pdb
REMARK  6 active torsions:
REMARK  status: ('A' for Active; 'I' for Inactive)
REMARK    1  A    between atoms: C4_2  and  CAE_20
REMARK    2  A    between atoms: NAS_14  and  CAR_15
REMARK    3  A    between atoms: CAR_15  and  CAB_16
REMARK    4  A    between atoms: CAB_16  and  CAC_18
REMARK    5  A    between atoms: CAC_18  and  NAD_19
REMARK    6  A    between atoms: NAJ_24  and  CAK_25
REMARK                            x       y       z     vdW  Elec       q    Type
REMARK                         _______ _______ _______ _____ _____    ______ ____
ROOT
ATOM      1  CAC 3XV A 702      27.236   6.619   5.870  0.00  0.00    +0.000 C 
ENDROOT
BRANCH   1   2
ATOM      2  NAD 3XV A 702      27.924   5.328   5.730  0.00  0.00    +0.000 NA
ATOM      3  CAE 3XV A 702      27.582   4.242   6.453  0.00  0.00    +0.000 C 
ATOM      4  OAF 3XV A 702      26.711   4.254   7.332  0.00  0.00    +0.000 OA
BRANCH   3   6
ATOM      5  C2  3XV A 702      30.325   1.978   5.541  0.00  0.00    +0.000 C 
ATOM      6  C4  3XV A 702      28.275   3.066   6.116  0.00  0.00    +0.000 C 
ATOM      7  C5  3XV A 702      27.584   1.848   5.986  0.00  0.00    +0.000 C 
ATOM      8  C6  3XV A 702      28.301   0.693   5.628  0.00  0.00    +0.000 C 
ATOM      9  N3  3XV A 702      29.609   3.122   5.888  0.00  0.00    +0.000 NA
ATOM     10  N1  3XV A 702      29.637   0.767   5.413  0.00  0.00    +0.000 NA
ATOM     11  NAJ 3XV A 702      27.679  -0.494   5.493  0.00  0.00    +0.000 NA
BRANCH  11  12
ATOM     12  CAK 3XV A 702      28.386  -1.701   5.005  0.00  0.00    +0.000 C 
ATOM     13  CAL 3XV A 702      29.117  -1.441   3.694  0.00  0.00    +0.000 C 
ATOM     14  OAM 3XV A 702      28.497  -2.658   3.176  0.00  0.00    +0.000 OA
ATOM     15  CAN 3XV A 702      27.456  -2.592   4.194  0.00  0.00    +0.000 C 
ENDBRANCH  11  12
ENDBRANCH   3   6
ENDBRANCH   1   2
BRANCH   1  16
ATOM     16  CAB 3XV A 702      26.308   6.808   4.645  0.00  0.00    +0.000 C 
ATOM     17  OAA 3XV A 702      26.271   8.179   4.228  0.00  0.00    +0.000 OA
BRANCH  16  18
ATOM     18  CAR 3XV A 702      24.881   6.358   4.980  0.00  0.00    +0.000 C 
BRANCH  18  28
ATOM     19  CAT 3XV A 702      23.848   4.243   5.230  0.00  0.00    +0.000 C 
ATOM     20  CAU 3XV A 702      23.465   2.943   4.593  0.00  0.00    +0.000 C 
ATOM     21  CAV 3XV A 702      24.546   2.394   3.883  0.00  0.00    +0.000 A 
ATOM     22  CBB 3XV A 702      24.513   1.024   3.584  0.00  0.00    +0.000 A 
ATOM     23  CBA 3XV A 702      25.562   0.426   2.884  0.00  0.00    +0.000 A 
ATOM     24  CAZ 3XV A 702      26.652   1.186   2.470  0.00  0.00    +0.000 A 
ATOM     25  CAY 3XV A 702      26.696   2.547   2.753  0.00  0.00    +0.000 A 
ATOM     26  CAW 3XV A 702      25.652   3.166   3.460  0.00  0.00    +0.000 A 
ATOM     27  CAX 3XV A 702      25.762   4.537   3.719  0.00  0.00    +0.000 C 
ATOM     28  NAS 3XV A 702      24.529   5.128   4.266  0.00  0.00    +0.000 NA
ENDBRANCH  18  28
ENDBRANCH  16  18
ENDBRANCH   1  16
TORSDOF 6
ENDMDL
MODEL 2
REMARK VINA RESULT:      -6.7      5.019      7.548
REMARK  Name = ligand_pdbs\3XV.pdb
REMARK  6 active torsions:
REMARK  status: ('A' for Active; 'I' for Inactive)
REMARK    1  A    between atoms: C4_2  and  CAE_20
REMARK    2  A    between atoms: NAS_14  and  CAR_15
REMARK    3  A    between atoms: CAR_15  and  CAB_16
REMARK    4  A    between atoms: CAB_16  and  CAC_18
REMARK    5  A    between atoms: CAC_18  and  NAD_19
REMARK    6  A    between atoms: NAJ_24  and  CAK_25
REMARK                            x       y       z     vdW  Elec       q    Type
REMARK                         _______ _______ _______ _____ _____    ______ ____
ROOT
ATOM      1  CAC 3XV A 702      25.684   8.527   5.660  0.00  0.00    +0.000 C 
ENDROOT
BRANCH   1   2
ATOM      2  NAD 3XV A 702      25.357   7.168   5.206  0.00  0.00    +0.000 NA
ATOM      3  CAE 3XV A 702      26.303   6.254   4.912  0.00  0.00    +0.000 C 
ATOM      4  OAF 3XV A 702      27.517   6.495   4.940  0.00  0.00    +0.000 OA
BRANCH   3   6
ATOM      5  C2  3XV A 702      23.970   3.459   4.442  0.00  0.00    +0.000 C 
ATOM      6  C4  3XV A 702      25.812   4.976   4.595  0.00  0.00    +0.000 C 
ATOM      7  C5  3XV A 702      26.689   3.966   4.161  0.00  0.00    +0.000 C 
ATOM      8  C6  3XV A 702      26.170   2.692   3.870  0.00  0.00    +0.000 C 
ATOM      9  N3  3XV A 702      24.490   4.718   4.737  0.00  0.00    +0.000 NA
ATOM     10  N1  3XV A 702      24.843   2.455   4.010  0.00  0.00    +0.000 NA
ATOM     11  NAJ 3XV A 702      26.974   1.695   3.452  0.00  0.00    +0.000 NA
BRANCH  11  12
ATOM     12  CAK 3XV A 702      26.475   0.315   3.250  0.00  0.00    +0.000 C 
ATOM     13  CAL 3XV A 702      26.569  -0.515   4.523  0.00  0.00    +0.000 C 
ATOM     14  OAM 3XV A 702      27.207  -1.559   3.724  0.00  0.00    +0.000 OA
ATOM     15  CAN 3XV A 702      27.569  -0.588   2.698  0.00  0.00    +0.000 C 
ENDBRANCH  11  12
ENDBRANCH   3   6
ENDBRANCH   1   2
BRANCH   1  16
ATOM     16  CAB 3XV A 702      24.473   9.076   6.455  0.00  0.00    +0.000 C 
ATOM     17  OAA 3XV A 702      23.236   8.727   5.820  0.00  0.00    +0.000 OA
BRANCH  16  18
ATOM     18  CAR 3XV A 702      24.554  10.603   6.567  0.00  0.00    +0.000 C 
BRANCH  18  28
ATOM     19  CAT 3XV A 702      24.013  12.539   7.817  0.00  0.00    +0.000 C 
ATOM     20  CAU 3XV A 702      23.217  13.136   8.937  0.00  0.00    +0.000 C 
ATOM     21  CAV 3XV A 702      23.308  12.345  10.095  0.00  0.00    +0.000 A 
ATOM     22  CBB 3XV A 702      22.992  12.937  11.327  0.00  0.00    +0.000 A 
ATOM     23  CBA 3XV A 702      23.070  12.199  12.509  0.00  0.00    +0.000 A 
ATOM     24  CAZ 3XV A 702      23.457  10.862  12.477  0.00  0.00    +0.000 A 
ATOM     25  CAY 3XV A 702      23.767  10.259  11.262  0.00  0.00    +0.000 A 
ATOM     26  CAW 3XV A 702      23.699  10.987  10.063  0.00  0.00    +0.000 A 
ATOM     27  CAX 3XV A 702      24.032  10.323   8.877  0.00  0.00    +0.000 C 
ATOM     28  NAS 3XV A 702      23.721  11.100   7.666  0.00  0.00    +0.000 NA
ENDBRANCH  18  28
ENDBRANCH  16  18
ENDBRANCH   1  16
TORSDOF 6
ENDMDL
MODEL 3
REMARK VINA RESULT:      -5.5      1.637      6.123
REMARK  Name = ligand_pdbs\3XV.pdb
REMARK  6 active torsions:
REMARK  status: ('A' for Active; 'I' for Inactive)
REMARK    1  A    between atoms: C4_2  and  CAE_20
REMARK    2  A    between atoms: NAS_14  and  CAR_15
REMARK    3  A    between atoms: CAR_15  and  CAB_16
REMARK    4  A    between atoms: CAB_16  and  CAC_18
REMARK    5  A    between atoms: CAC_18  and  NAD_19
REMARK    6  A    between atoms: NAJ_24  and  CAK_25
REMARK                            x       y       z     vdW  Elec       q    Type
REMARK                         _______ _______ _______ _____ _____    ______ ____
ROOT
ATOM      1  CAC 3XV A 702      28.947  -1.100   4.915  0.00  0.00    +0.000 C 
ENDROOT
BRANCH   1   2
ATOM      2  NAD 3XV A 702      28.751   0.312   5.272  0.00  0.00    +0.000 NA
ATOM      3  CAE 3XV A 702      29.100   1.323   4.450  0.00  0.00    +0.000 C 
ATOM      4  OAF 3XV A 702      29.665   1.154   3.361  0.00  0.00    +0.000 OA
BRANCH   3   6
ATOM      5  C2  3XV A 702      28.765   4.249   6.642  0.00  0.00    +0.000 C 
ATOM      6  C4  3XV A 702      28.746   2.604   4.907  0.00  0.00    +0.000 C 
ATOM      7  C5  3XV A 702      27.996   3.468   4.088  0.00  0.00    +0.000 C 
ATOM      8  C6  3XV A 702      27.641   4.736   4.580  0.00  0.00    +0.000 C 
ATOM      9  N3  3XV A 702      29.109   2.990   6.153  0.00  0.00    +0.000 NA
ATOM     10  N1  3XV A 702      28.021   5.107   5.827  0.00  0.00    +0.000 NA
ATOM     11  NAJ 3XV A 702      26.923   5.594   3.830  0.00  0.00    +0.000 NA
BRANCH  11  12
ATOM     12  CAK 3XV A 702      26.436   6.887   4.364  0.00  0.00    +0.000 C 
ATOM     13  CAL 3XV A 702      25.474   6.695   5.528  0.00  0.00    +0.000 C 
ATOM     14  OAM 3XV A 702      24.568   7.624   4.856  0.00  0.00    +0.000 OA
ATOM     15  CAN 3XV A 702      25.230   7.385   3.579  0.00  0.00    +0.000 C 
ENDBRANCH  11  12
ENDBRANCH   3   6
ENDBRANCH   1   2
BRANCH   1  16
ATOM     16  CAB 3XV A 702      27.555  -1.732   4.665  0.00  0.00    +0.000 C 
ATOM     17  OAA 3XV A 702      27.630  -3.163   4.651  0.00  0.00    +0.000 OA
BRANCH  16  18
ATOM     18  CAR 3XV A 702      26.985  -1.257   3.323  0.00  0.00    +0.000 C 
BRANCH  18  28
ATOM     19  CAT 3XV A 702      25.843   0.591   2.383  0.00  0.00    +0.000 C 
ATOM     20  CAU 3XV A 702      24.722   1.576   2.505  0.00  0.00    +0.000 C 
ATOM     21  CAV 3XV A 702      24.682   2.135   3.794  0.00  0.00    +0.000 A 
ATOM     22  CBB 3XV A 702      23.995   3.345   3.969  0.00  0.00    +0.000 A 
ATOM     23  CBA 3XV A 702      23.928   3.947   5.226  0.00  0.00    +0.000 A 
ATOM     24  CAZ 3XV A 702      24.540   3.349   6.324  0.00  0.00    +0.000 A 
ATOM     25  CAY 3XV A 702      25.220   2.145   6.168  0.00  0.00    +0.000 A 
ATOM     26  CAW 3XV A 702      25.301   1.527   4.909  0.00  0.00    +0.000 A 
ATOM     27  CAX 3XV A 702      26.007   0.321   4.819  0.00  0.00    +0.000 C 
ATOM     28  NAS 3XV A 702      25.850  -0.351   3.519  0.00  0.00    +0.000 NA
ENDBRANCH  18  28
ENDBRANCH  16  18
ENDBRANCH   1  16
TORSDOF 6
ENDMDL
MODEL 4
REMARK VINA RESULT:      -5.3      1.705      3.619
REMARK  Name = ligand_pdbs\3XV.pdb
REMARK  6 active torsions:
REMARK  status: ('A' for Active; 'I' for Inactive)
REMARK    1  A    between atoms: C4_2  and  CAE_20
REMARK    2  A    between atoms: NAS_14  and  CAR_15
REMARK    3  A    between atoms: CAR_15  and  CAB_16
REMARK    4  A    between atoms: CAB_16  and  CAC_18
REMARK    5  A    between atoms: CAC_18  and  NAD_19
REMARK    6  A    between atoms: NAJ_24  and  CAK_25
REMARK                            x       y       z     vdW  Elec       q    Type
REMARK                         _______ _______ _______ _____ _____    ______ ____
ROOT
ATOM      1  CAC 3XV A 702      23.923   6.270   5.020  0.00  0.00    +0.000 C 
ENDROOT
BRANCH   1   2
ATOM      2  NAD 3XV A 702      24.312   4.953   4.496  0.00  0.00    +0.000 NA
ATOM      3  CAE 3XV A 702      24.436   3.866   5.284  0.00  0.00    +0.000 C 
ATOM      4  OAF 3XV A 702      24.294   3.895   6.514  0.00  0.00    +0.000 OA
BRANCH   3   6
ATOM      5  C2  3XV A 702      24.352   1.246   2.714  0.00  0.00    +0.000 C 
ATOM      6  C4  3XV A 702      24.713   2.670   4.601  0.00  0.00    +0.000 C 
ATOM      7  C5  3XV A 702      25.587   1.720   5.159  0.00  0.00    +0.000 C 
ATOM      8  C6  3XV A 702      25.829   0.524   4.461  0.00  0.00    +0.000 C 
ATOM      9  N3  3XV A 702      24.109   2.427   3.413  0.00  0.00    +0.000 NA
ATOM     10  N1  3XV A 702      25.222   0.303   3.270  0.00  0.00    +0.000 NA
ATOM     11  NAJ 3XV A 702      26.659  -0.413   4.959  0.00  0.00    +0.000 NA
BRANCH  11  12
ATOM     12  CAK 3XV A 702      26.842  -1.729   4.304  0.00  0.00    +0.000 C 
ATOM     13  CAL 3XV A 702      27.802  -2.621   5.079  0.00  0.00    +0.000 C 
ATOM     14  OAM 3XV A 702      28.494  -2.873   3.817  0.00  0.00    +0.000 OA
ATOM     15  CAN 3XV A 702      27.924  -1.664   3.234  0.00  0.00    +0.000 C 
ENDBRANCH  11  12
ENDBRANCH   3   6
ENDBRANCH   1   2
BRANCH   1  16
ATOM     16  CAB 3XV A 702      25.213   7.047   5.382  0.00  0.00    +0.000 C 
ATOM     17  OAA 3XV A 702      24.906   8.324   5.954  0.00  0.00    +0.000 OA
BRANCH  16  18
ATOM     18  CAR 3XV A 702      26.077   7.262   4.133  0.00  0.00    +0.000 C 
BRANCH  18  28
ATOM     19  CAT 3XV A 702      26.774   5.271   3.059  0.00  0.00    +0.000 C 
ATOM     20  CAU 3XV A 702      27.821   4.208   2.929  0.00  0.00    +0.000 C 
ATOM     21  CAV 3XV A 702      28.210   3.730   4.191  0.00  0.00    +0.000 A 
ATOM     22  CBB 3XV A 702      28.846   2.481   4.258  0.00  0.00    +0.000 A 
ATOM     23  CBA 3XV A 702      29.249   1.956   5.487  0.00  0.00    +0.000 A 
ATOM     24  CAZ 3XV A 702      29.030   2.670   6.661  0.00  0.00    +0.000 A 
ATOM     25  CAY 3XV A 702      28.407   3.913   6.611  0.00  0.00    +0.000 A 
ATOM     26  CAW 3XV A 702      27.990   4.456   5.384  0.00  0.00    +0.000 A 
ATOM     27  CAX 3XV A 702      27.362   5.707   5.404  0.00  0.00    +0.000 C 
ATOM     28  NAS 3XV A 702      27.163   6.281   4.063  0.00  0.00    +0.000 NA
ENDBRANCH  18  28
ENDBRANCH  16  18
ENDBRANCH   1  16
TORSDOF 6
ENDMDL
MODEL 5
REMARK VINA RESULT:      -5.1      1.632      3.815
REMARK  Name = ligand_pdbs\3XV.pdb
REMARK  6 active torsions:
REMARK  status: ('A' for Active; 'I' for Inactive)
REMARK    1  A    between atoms: C4_2  and  CAE_20
REMARK    2  A    between atoms: NAS_14  and  CAR_15
REMARK    3  A    between atoms: CAR_15  and  CAB_16
REMARK    4  A    between atoms: CAB_16  and  CAC_18
REMARK    5  A    between atoms: CAC_18  and  NAD_19
REMARK    6  A    between atoms: NAJ_24  and  CAK_25
REMARK                            x       y       z     vdW  Elec       q    Type
REMARK                         _______ _______ _______ _____ _____    ______ ____
ROOT
ATOM      1  CAC 3XV A 702      25.637   6.303   3.853  0.00  0.00    +0.000 C 
ENDROOT
BRANCH   1   2
ATOM      2  NAD 3XV A 702      25.836   4.859   3.664  0.00  0.00    +0.000 NA
ATOM      3  CAE 3XV A 702      24.871   3.954   3.924  0.00  0.00    +0.000 C 
ATOM      4  OAF 3XV A 702      23.766   4.250   4.398  0.00  0.00    +0.000 OA
BRANCH   3   6
ATOM      5  C2  3XV A 702      24.499   0.395   3.102  0.00  0.00    +0.000 C 
ATOM      6  C4  3XV A 702      25.200   2.629   3.589  0.00  0.00    +0.000 C 
ATOM      7  C5  3XV A 702      26.545   2.242   3.457  0.00  0.00    +0.000 C 
ATOM      8  C6  3XV A 702      26.843   0.905   3.141  0.00  0.00    +0.000 C 
ATOM      9  N3  3XV A 702      24.209   1.720   3.423  0.00  0.00    +0.000 NA
ATOM     10  N1  3XV A 702      25.838   0.013   2.969  0.00  0.00    +0.000 NA
ATOM     11  NAJ 3XV A 702      28.118   0.492   3.005  0.00  0.00    +0.000 NA
BRANCH  11  12
ATOM     12  CAK 3XV A 702      28.464  -0.931   2.787  0.00  0.00    +0.000 C 
ATOM     13  CAL 3XV A 702      28.111  -1.793   3.992  0.00  0.00    +0.000 C 
ATOM     14  OAM 3XV A 702      29.457  -2.355   3.911  0.00  0.00    +0.000 OA
ATOM     15  CAN 3XV A 702      29.919  -1.203   3.145  0.00  0.00    +0.000 C 
ENDBRANCH  11  12
ENDBRANCH   3   6
ENDBRANCH   1   2
BRANCH   1  16
ATOM     16  CAB 3XV A 702      25.938   6.643   5.334  0.00  0.00    +0.000 C 
ATOM     17  OAA 3XV A 702      25.880   8.057   5.563  0.00  0.00    +0.000 OA
BRANCH  16  18
ATOM     18  CAR 3XV A 702      27.333   6.139   5.725  0.00  0.00    +0.000 C 
BRANCH  18  28
ATOM     19  CAT 3XV A 702      26.769   4.094   6.776  0.00  0.00    +0.000 C 
ATOM     20  CAU 3XV A 702      26.831   2.598   6.741  0.00  0.00    +0.000 C 
ATOM     21  CAV 3XV A 702      28.134   2.157   6.455  0.00  0.00    +0.000 A 
ATOM     22  CBB 3XV A 702      28.473   0.837   6.787  0.00  0.00    +0.000 A 
ATOM     23  CBA 3XV A 702      29.755   0.348   6.530  0.00  0.00    +0.000 A 
ATOM     24  CAZ 3XV A 702      30.711   1.165   5.935  0.00  0.00    +0.000 A 
ATOM     25  CAY 3XV A 702      30.389   2.475   5.593  0.00  0.00    +0.000 A 
ATOM     26  CAW 3XV A 702      29.105   2.986   5.849  0.00  0.00    +0.000 A 
ATOM     27  CAX 3XV A 702      28.849   4.314   5.488  0.00  0.00    +0.000 C 
ATOM     28  NAS 3XV A 702      27.427   4.682   5.593  0.00  0.00    +0.000 NA
ENDBRANCH  18  28
ENDBRANCH  16  18
ENDBRANCH   1  16
TORSDOF 6
ENDMDL
MODEL 6
REMARK VINA RESULT:      -5.0      1.973      6.660
REMARK  Name = ligand_pdbs\3XV.pdb
REMARK  6 active torsions:
REMARK  status: ('A' for Active; 'I' for Inactive)
REMARK    1  A    between atoms: C4_2  and  CAE_20
REMARK    2  A    between atoms: NAS_14  and  CAR_15
REMARK    3  A    between atoms: CAR_15  and  CAB_16
REMARK    4  A    between atoms: CAB_16  and  CAC_18
REMARK    5  A    between atoms: CAC_18  and  NAD_19
REMARK    6  A    between atoms: NAJ_24  and  CAK_25
REMARK                            x       y       z     vdW  Elec       q    Type
REMARK                         _______ _______ _______ _____ _____    ______ ____
ROOT
ATOM      1  CAC 3XV A 702      28.384  -2.153   3.704  0.00  0.00    +0.000 C 
ENDROOT
BRANCH   1   2
ATOM      2  NAD 3XV A 702      27.370  -1.093   3.623  0.00  0.00    +0.000 NA
ATOM      3  CAE 3XV A 702      26.553  -0.790   4.653  0.00  0.00    +0.000 C 
ATOM      4  OAF 3XV A 702      26.545  -1.412   5.723  0.00  0.00    +0.000 OA
BRANCH   3   6
ATOM      5  C2  3XV A 702      24.119   1.456   3.068  0.00  0.00    +0.000 C 
ATOM      6  C4  3XV A 702      25.716   0.318   4.437  0.00  0.00    +0.000 C 
ATOM      7  C5  3XV A 702      25.695   1.382   5.357  0.00  0.00    +0.000 C 
ATOM      8  C6  3XV A 702      24.862   2.486   5.103  0.00  0.00    +0.000 C 
ATOM      9  N3  3XV A 702      24.952   0.367   3.320  0.00  0.00    +0.000 NA
ATOM     10  N1  3XV A 702      24.098   2.512   3.985  0.00  0.00    +0.000 NA
ATOM     11  NAJ 3XV A 702      24.811   3.526   5.957  0.00  0.00    +0.000 NA
BRANCH  11  12
ATOM     12  CAK 3XV A 702      24.034   4.751   5.659  0.00  0.00    +0.000 C 
ATOM     13  CAL 3XV A 702      23.642   4.832   4.190  0.00  0.00    +0.000 C 
ATOM     14  OAM 3XV A 702      24.149   6.202   4.191  0.00  0.00    +0.000 OA
ATOM     15  CAN 3XV A 702      24.954   5.929   5.376  0.00  0.00    +0.000 C 
ENDBRANCH  11  12
ENDBRANCH   3   6
ENDBRANCH   1   2
BRANCH   1  16
ATOM     16  CAB 3XV A 702      29.779  -1.483   3.779  0.00  0.00    +0.000 C 
ATOM     17  OAA 3XV A 702      30.821  -2.419   3.477  0.00  0.00    +0.000 OA
BRANCH  16  18
ATOM     18  CAR 3XV A 702      30.023  -0.910   5.180  0.00  0.00    +0.000 C 
BRANCH  18  28
ATOM     19  CAT 3XV A 702      29.623   1.017   6.495  0.00  0.00    +0.000 C 
ATOM     20  CAU 3XV A 702      29.598   2.513   6.566  0.00  0.00    +0.000 C 
ATOM     21  CAV 3XV A 702      28.920   3.056   5.462  0.00  0.00    +0.000 A 
ATOM     22  CBB 3XV A 702      28.439   4.371   5.562  0.00  0.00    +0.000 A 
ATOM     23  CBA 3XV A 702      27.755   4.958   4.497  0.00  0.00    +0.000 A 
ATOM     24  CAZ 3XV A 702      27.548   4.247   3.318  0.00  0.00    +0.000 A 
ATOM     25  CAY 3XV A 702      28.025   2.946   3.200  0.00  0.00    +0.000 A 
ATOM     26  CAW 3XV A 702      28.712   2.336   4.264  0.00  0.00    +0.000 A 
ATOM     27  CAX 3XV A 702      29.158   1.022   4.083  0.00  0.00    +0.000 C 
ATOM     28  NAS 3XV A 702      30.048   0.555   5.159  0.00  0.00    +0.000 NA
ENDBRANCH  18  28
ENDBRANCH  16  18
ENDBRANCH   1  16
TORSDOF 6
ENDMDL
MODEL 7
REMARK VINA RESULT:      -4.9      4.481      6.904
REMARK  Name = ligand_pdbs\3XV.pdb
REMARK  6 active torsions:
REMARK  status: ('A' for Active; 'I' for Inactive)
REMARK    1  A    between atoms: C4_2  and  CAE_20
REMARK    2  A    between atoms: NAS_14  and  CAR_15
REMARK    3  A    between atoms: CAR_15  and  CAB_16
REMARK    4  A    between atoms: CAB_16  and  CAC_18
REMARK    5  A    between atoms: CAC_18  and  NAD_19
REMARK    6  A    between atoms: NAJ_24  and  CAK_25
REMARK                            x       y       z     vdW  Elec       q    Type
REMARK                         _______ _______ _______ _____ _____    ______ ____
ROOT
ATOM      1  CAC 3XV A 702      24.202   7.487   4.799  0.00  0.00    +0.000 C 
ENDROOT
BRANCH   1   2
ATOM      2  NAD 3XV A 702      25.129   6.358   4.964  0.00  0.00    +0.000 NA
ATOM      3  CAE 3XV A 702      24.769   5.082   4.722  0.00  0.00    +0.000 C 
ATOM      4  OAF 3XV A 702      23.621   4.745   4.402  0.00  0.00    +0.000 OA
BRANCH   3   6
ATOM      5  C2  3XV A 702      28.130   3.673   5.162  0.00  0.00    +0.000 C 
ATOM      6  C4  3XV A 702      25.810   4.143   4.831  0.00  0.00    +0.000 C 
ATOM      7  C5  3XV A 702      25.547   2.770   4.674  0.00  0.00    +0.000 C 
ATOM      8  C6  3XV A 702      26.612   1.858   4.768  0.00  0.00    +0.000 C 
ATOM      9  N3  3XV A 702      27.073   4.574   5.060  0.00  0.00    +0.000 NA
ATOM     10  N1  3XV A 702      27.867   2.308   5.007  0.00  0.00    +0.000 NA
ATOM     11  NAJ 3XV A 702      26.405   0.534   4.625  0.00  0.00    +0.000 NA
BRANCH  11  12
ATOM     12  CAK 3XV A 702      27.522  -0.438   4.603  0.00  0.00    +0.000 C 
ATOM     13  CAL 3XV A 702      27.457  -1.353   3.388  0.00  0.00    +0.000 C 
ATOM     14  OAM 3XV A 702      27.643  -2.479   4.300  0.00  0.00    +0.000 OA
ATOM     15  CAN 3XV A 702      27.190  -1.674   5.428  0.00  0.00    +0.000 C 
ENDBRANCH  11  12
ENDBRANCH   3   6
ENDBRANCH   1   2
BRANCH   1  16
ATOM     16  CAB 3XV A 702      24.962   8.791   5.149  0.00  0.00    +0.000 C 
ATOM     17  OAA 3XV A 702      26.245   8.830   4.512  0.00  0.00    +0.000 OA
BRANCH  16  18
ATOM     18  CAR 3XV A 702      25.162   8.903   6.665  0.00  0.00    +0.000 C 
BRANCH  18  28
ATOM     19  CAT 3XV A 702      24.462  11.163   6.709  0.00  0.00    +0.000 C 
ATOM     20  CAU 3XV A 702      23.526  12.184   7.279  0.00  0.00    +0.000 C 
ATOM     21  CAV 3XV A 702      23.459  12.077   8.678  0.00  0.00    +0.000 A 
ATOM     22  CBB 3XV A 702      22.982  13.180   9.403  0.00  0.00    +0.000 A 
ATOM     23  CBA 3XV A 702      22.900  13.131  10.795  0.00  0.00    +0.000 A 
ATOM     24  CAZ 3XV A 702      23.285  11.982  11.481  0.00  0.00    +0.000 A 
ATOM     25  CAY 3XV A 702      23.754  10.878  10.776  0.00  0.00    +0.000 A 
ATOM     26  CAW 3XV A 702      23.848  10.911   9.375  0.00  0.00    +0.000 A 
ATOM     27  CAX 3XV A 702      24.336   9.769   8.727  0.00  0.00    +0.000 C 
ATOM     28  NAS 3XV A 702      24.191   9.823   7.263  0.00  0.00    +0.000 NA
ENDBRANCH  18  28
ENDBRANCH  16  18
ENDBRANCH   1  16
TORSDOF 6
ENDMDL
MODEL 8
REMARK VINA RESULT:      -4.7      1.611      7.063
REMARK  Name = ligand_pdbs\3XV.pdb
REMARK  6 active torsions:
REMARK  status: ('A' for Active; 'I' for Inactive)
REMARK    1  A    between atoms: C4_2  and  CAE_20
REMARK    2  A    between atoms: NAS_14  and  CAR_15
REMARK    3  A    between atoms: CAR_15  and  CAB_16
REMARK    4  A    between atoms: CAB_16  and  CAC_18
REMARK    5  A    between atoms: CAC_18  and  NAD_19
REMARK    6  A    between atoms: NAJ_24  and  CAK_25
REMARK                            x       y       z     vdW  Elec       q    Type
REMARK                         _______ _______ _______ _____ _____    ______ ____
ROOT
ATOM      1  CAC 3XV A 702      27.887  -0.896   2.361  0.00  0.00    +0.000 C 
ENDROOT
BRANCH   1   2
ATOM      2  NAD 3XV A 702      27.218   0.283   2.930  0.00  0.00    +0.000 NA
ATOM      3  CAE 3XV A 702      26.168   0.881   2.333  0.00  0.00    +0.000 C 
ATOM      4  OAF 3XV A 702      25.717   0.530   1.234  0.00  0.00    +0.000 OA
BRANCH   3   6
ATOM      5  C2  3XV A 702      23.757   2.778   4.350  0.00  0.00    +0.000 C 
ATOM      6  C4  3XV A 702      25.588   1.929   3.067  0.00  0.00    +0.000 C 
ATOM      7  C5  3XV A 702      26.258   3.159   3.198  0.00  0.00    +0.000 C 
ATOM      8  C6  3XV A 702      25.644   4.196   3.923  0.00  0.00    +0.000 C 
ATOM      9  N3  3XV A 702      24.366   1.755   3.624  0.00  0.00    +0.000 NA
ATOM     10  N1  3XV A 702      24.425   4.000   4.480  0.00  0.00    +0.000 NA
ATOM     11  NAJ 3XV A 702      26.251   5.389   4.073  0.00  0.00    +0.000 NA
BRANCH  11  12
ATOM     12  CAK 3XV A 702      25.579   6.535   4.730  0.00  0.00    +0.000 C 
ATOM     13  CAL 3XV A 702      25.197   7.618   3.731  0.00  0.00    +0.000 C 
ATOM     14  OAM 3XV A 702      25.817   8.586   4.633  0.00  0.00    +0.000 OA
ATOM     15  CAN 3XV A 702      26.596   7.531   5.270  0.00  0.00    +0.000 C 
ENDBRANCH  11  12
ENDBRANCH   3   6
ENDBRANCH   1   2
BRANCH   1  16
ATOM     16  CAB 3XV A 702      28.012  -1.965   3.475  0.00  0.00    +0.000 C 
ATOM     17  OAA 3XV A 702      26.723  -2.387   3.936  0.00  0.00    +0.000 OA
BRANCH  16  18
ATOM     18  CAR 3XV A 702      28.802  -1.407   4.665  0.00  0.00    +0.000 C 
BRANCH  18  28
ATOM     19  CAT 3XV A 702      30.053   0.529   5.200  0.00  0.00    +0.000 C 
ATOM     20  CAU 3XV A 702      30.089   2.024   5.290  0.00  0.00    +0.000 C 
ATOM     21  CAV 3XV A 702      28.945   2.515   5.940  0.00  0.00    +0.000 A 
ATOM     22  CBB 3XV A 702      28.994   3.810   6.478  0.00  0.00    +0.000 A 
ATOM     23  CBA 3XV A 702      27.888   4.346   7.138  0.00  0.00    +0.000 A 
ATOM     24  CAZ 3XV A 702      26.718   3.603   7.265  0.00  0.00    +0.000 A 
ATOM     25  CAY 3XV A 702      26.650   2.320   6.730  0.00  0.00    +0.000 A 
ATOM     26  CAW 3XV A 702      27.756   1.762   6.066  0.00  0.00    +0.000 A 
ATOM     27  CAX 3XV A 702      27.624   0.464   5.559  0.00  0.00    +0.000 C 
ATOM     28  NAS 3XV A 702      28.748   0.057   4.699  0.00  0.00    +0.000 NA
ENDBRANCH  18  28
ENDBRANCH  16  18
ENDBRANCH   1  16
TORSDOF 6
ENDMDL
MODEL 9
REMARK VINA RESULT:      -4.6      4.668      7.293
REMARK  Name = ligand_pdbs\3XV.pdb
REMARK  6 active torsions:
REMARK  status: ('A' for Active; 'I' for Inactive)
REMARK    1  A    between atoms: C4_2  and  CAE_20
REMARK    2  A    between atoms: NAS_14  and  CAR_15
REMARK    3  A    between atoms: CAR_15  and  CAB_16
REMARK    4  A    between atoms: CAB_16  and  CAC_18
REMARK    5  A    between atoms: CAC_18  and  NAD_19
REMARK    6  A    between atoms: NAJ_24  and  CAK_25
REMARK                            x       y       z     vdW  Elec       q    Type
REMARK                         _______ _______ _______ _____ _____    ______ ____
ROOT
ATOM      1  CAC 3XV A 702      24.069   7.478   5.211  0.00  0.00    +0.000 C 
ENDROOT
BRANCH   1   2
ATOM      2  NAD 3XV A 702      25.011   6.376   4.968  0.00  0.00    +0.000 NA
ATOM      3  CAE 3XV A 702      24.615   5.090   4.878  0.00  0.00    +0.000 C 
ATOM      4  OAF 3XV A 702      23.445   4.722   5.050  0.00  0.00    +0.000 OA
BRANCH   3   6
ATOM      5  C2  3XV A 702      26.520   2.551   3.033  0.00  0.00    +0.000 C 
ATOM      6  C4  3XV A 702      25.633   4.181   4.540  0.00  0.00    +0.000 C 
ATOM      7  C5  3XV A 702      26.729   3.991   5.401  0.00  0.00    +0.000 C 
ATOM      8  C6  3XV A 702      27.721   3.060   5.046  0.00  0.00    +0.000 C 
ATOM      9  N3  3XV A 702      25.535   3.469   3.393  0.00  0.00    +0.000 NA
ATOM     10  N1  3XV A 702      27.610   2.364   3.889  0.00  0.00    +0.000 NA
ATOM     11  NAJ 3XV A 702      28.787   2.847   5.841  0.00  0.00    +0.000 NA
BRANCH  11  12
ATOM     12  CAK 3XV A 702      29.785   1.792   5.550  0.00  0.00    +0.000 C 
ATOM     13  CAL 3XV A 702      29.486   0.503   6.303  0.00  0.00    +0.000 C 
ATOM     14  OAM 3XV A 702      30.885   0.494   6.725  0.00  0.00    +0.000 OA
ATOM     15  CAN 3XV A 702      31.001   1.923   6.457  0.00  0.00    +0.000 C 
ENDBRANCH  11  12
ENDBRANCH   3   6
ENDBRANCH   1   2
BRANCH   1  16
ATOM     16  CAB 3XV A 702      24.884   8.786   5.362  0.00  0.00    +0.000 C 
ATOM     17  OAA 3XV A 702      26.108   8.722   4.620  0.00  0.00    +0.000 OA
BRANCH  16  18
ATOM     18  CAR 3XV A 702      25.217   9.041   6.837  0.00  0.00    +0.000 C 
BRANCH  18  28
ATOM     19  CAT 3XV A 702      24.461  11.281   6.947  0.00  0.00    +0.000 C 
ATOM     20  CAU 3XV A 702      23.499  12.260   7.547  0.00  0.00    +0.000 C 
ATOM     21  CAV 3XV A 702      23.437  12.111   8.942  0.00  0.00    +0.000 A 
ATOM     22  CBB 3XV A 702      22.932  13.180   9.700  0.00  0.00    +0.000 A 
ATOM     23  CBA 3XV A 702      22.853  13.088  11.090  0.00  0.00    +0.000 A 
ATOM     24  CAZ 3XV A 702      23.267  11.930  11.742  0.00  0.00    +0.000 A 
ATOM     25  CAY 3XV A 702      23.763  10.859  11.004  0.00  0.00    +0.000 A 
ATOM     26  CAW 3XV A 702      23.856  10.935   9.604  0.00  0.00    +0.000 A 
ATOM     27  CAX 3XV A 702      24.371   9.826   8.924  0.00  0.00    +0.000 C 
ATOM     28  NAS 3XV A 702      24.223   9.919   7.462  0.00  0.00    +0.000 NA
ENDBRANCH  18  28
ENDBRANCH  16  18
ENDBRANCH   1  16
TORSDOF 6
ENDMDL
