MODEL 1
REMARK VINA RESULT:      -5.1      0.000      0.000
REMARK  Name = ligand_pdbs\4HY_A_933 .pdb
REMARK  4 active torsions:
REMARK  status: ('A' for Active; 'I' for Inactive)
REMARK    1  A    between atoms: C1_1  and  C13_13
REMARK    2  A    between atoms: C2_2  and  O2_19
REMARK    3  A    between atoms: C7_7  and  O2_19
REMARK    4  A    between atoms: C13_13  and  C14_14
REMARK                            x       y       z     vdW  Elec       q    Type
REMARK                         _______ _______ _______ _____ _____    ______ ____
ROOT
ATOM      1  C1  4HY A 933      27.698  -0.183   3.571  0.00  0.00    +0.000 A 
ATOM      2  C3  4HY A 933      26.415   0.352   3.631  0.00  0.00    +0.000 A 
ATOM      3  C5  4HY A 933      26.182   1.533   4.330  0.00  0.00    +0.000 A 
ATOM      4  C7  4HY A 933      27.233   2.186   4.971  0.00  0.00    +0.000 A 
ATOM      5  C9  4HY A 933      28.516   1.644   4.914  0.00  0.00    +0.000 A 
ATOM      6  C11 4HY A 933      28.749   0.464   4.215  0.00  0.00    +0.000 A 
ATOM      7  I1  4HY A 933      24.231   2.292   4.434  0.00  0.00    +0.000 I 
ATOM      8  I3  4HY A 933      30.073   2.523   6.005  0.00  0.00    +0.000 I 
ENDROOT
BRANCH   1   9
ATOM      9  C13 4HY A 933      27.954  -1.476   2.793  0.00  0.00    +0.000 C 
BRANCH   9  10
ATOM     10  C14 4HY A 933      28.445  -2.571   3.743  0.00  0.00    +0.000 C 
ATOM     11  O3  4HY A 933      27.640  -2.974   4.609  0.00  0.00    +0.000 OA
ATOM     12  O4  4HY A 933      29.616  -2.978   3.582  0.00  0.00    +0.000 OA
ENDBRANCH   9  10
ENDBRANCH   1   9
BRANCH   4  13
ATOM     13  O2  4HY A 933      27.017   3.306   5.715  0.00  0.00    +0.000 OA
BRANCH  13  14
ATOM     14  C2  4HY A 933      26.657   4.436   5.041  0.00  0.00    +0.000 A 
ATOM     15  C4  4HY A 933      26.133   5.563   5.673  0.00  0.00    +0.000 A 
ATOM     16  C6  4HY A 933      25.786   6.689   4.930  0.00  0.00    +0.000 A 
ATOM     17  C8  4HY A 933      25.949   6.686   3.548  0.00  0.00    +0.000 A 
ATOM     18  C10 4HY A 933      26.468   5.563   2.911  0.00  0.00    +0.000 A 
ATOM     19  C12 4HY A 933      26.823   4.445   3.659  0.00  0.00    +0.000 A 
ATOM     20  I2  4HY A 933      25.131   8.439   5.879  0.00  0.00    +0.000 I 
ATOM     21  O1  4HY A 933      25.587   7.775   2.818  0.00  0.00    +0.000 OA
ENDBRANCH  13  14
ENDBRANCH   4  13
TORSDOF 4
ENDMDL
MODEL 2
REMARK VINA RESULT:      -5.0      0.145      2.256
REMARK  Name = ligand_pdbs\4HY_A_933 .pdb
REMARK  4 active torsions:
REMARK  status: ('A' for Active; 'I' for Inactive)
REMARK    1  A    between atoms: C1_1  and  C13_13
REMARK    2  A    between atoms: C2_2  and  O2_19
REMARK    3  A    between atoms: C7_7  and  O2_19
REMARK    4  A    between atoms: C13_13  and  C14_14
REMARK                            x       y       z     vdW  Elec       q    Type
REMARK                         _______ _______ _______ _____ _____    ______ ____
ROOT
ATOM      1  C1  4HY A 933      27.680  -0.153   3.658  0.00  0.00    +0.000 A 
ATOM      2  C3  4HY A 933      28.720   0.488   4.325  0.00  0.00    +0.000 A 
ATOM      3  C5  4HY A 933      28.464   1.617   5.097  0.00  0.00    +0.000 A 
ATOM      4  C7  4HY A 933      27.165   2.110   5.207  0.00  0.00    +0.000 A 
ATOM      5  C9  4HY A 933      26.127   1.470   4.532  0.00  0.00    +0.000 A 
ATOM      6  C11 4HY A 933      26.382   0.340   3.761  0.00  0.00    +0.000 A 
ATOM      7  I1  4HY A 933      30.057   2.581   6.058  0.00  0.00    +0.000 I 
ATOM      8  I3  4HY A 933      24.200   2.292   4.554  0.00  0.00    +0.000 I 
ENDROOT
BRANCH   1   9
ATOM      9  C13 4HY A 933      27.962  -1.402   2.819  0.00  0.00    +0.000 C 
BRANCH   9  10
ATOM     10  C14 4HY A 933      28.435  -2.543   3.722  0.00  0.00    +0.000 C 
ATOM     11  O3  4HY A 933      29.602  -2.957   3.551  0.00  0.00    +0.000 OA
ATOM     12  O4  4HY A 933      27.618  -2.977   4.564  0.00  0.00    +0.000 OA
ENDBRANCH   9  10
ENDBRANCH   1   9
BRANCH   4  13
ATOM     13  O2  4HY A 933      26.902   3.252   5.902  0.00  0.00    +0.000 OA
BRANCH  13  14
ATOM     14  C2  4HY A 933      26.587   4.361   5.173  0.00  0.00    +0.000 A 
ATOM     15  C4  4HY A 933      26.063   5.520   5.742  0.00  0.00    +0.000 A 
ATOM     16  C6  4HY A 933      25.763   6.622   4.944  0.00  0.00    +0.000 A 
ATOM     17  C8  4HY A 933      25.973   6.562   3.569  0.00  0.00    +0.000 A 
ATOM     18  C10 4HY A 933      26.493   5.407   2.995  0.00  0.00    +0.000 A 
ATOM     19  C12 4HY A 933      26.801   4.312   3.798  0.00  0.00    +0.000 A 
ATOM     20  I2  4HY A 933      25.108   8.419   5.801  0.00  0.00    +0.000 I 
ATOM     21  O1  4HY A 933      25.658   7.628   2.785  0.00  0.00    +0.000 OA
ENDBRANCH  13  14
ENDBRANCH   4  13
TORSDOF 4
ENDMDL
MODEL 3
REMARK VINA RESULT:      -5.0      2.154      7.461
REMARK  Name = ligand_pdbs\4HY_A_933 .pdb
REMARK  4 active torsions:
REMARK  status: ('A' for Active; 'I' for Inactive)
REMARK    1  A    between atoms: C1_1  and  C13_13
REMARK    2  A    between atoms: C2_2  and  O2_19
REMARK    3  A    between atoms: C7_7  and  O2_19
REMARK    4  A    between atoms: C13_13  and  C14_14
REMARK                            x       y       z     vdW  Elec       q    Type
REMARK                         _______ _______ _______ _____ _____    ______ ____
ROOT
ATOM      1  C1  4HY A 933      26.740   6.284   5.169  0.00  0.00    +0.000 A 
ATOM      2  C3  4HY A 933      27.640   5.325   5.624  0.00  0.00    +0.000 A 
ATOM      3  C5  4HY A 933      27.256   3.990   5.706  0.00  0.00    +0.000 A 
ATOM      4  C7  4HY A 933      25.970   3.606   5.331  0.00  0.00    +0.000 A 
ATOM      5  C9  4HY A 933      25.069   4.570   4.881  0.00  0.00    +0.000 A 
ATOM      6  C11 4HY A 933      25.452   5.905   4.798  0.00  0.00    +0.000 A 
ATOM      7  I1  4HY A 933      28.623   2.577   6.433  0.00  0.00    +0.000 I 
ATOM      8  I3  4HY A 933      23.085   4.037   4.468  0.00  0.00    +0.000 I 
ENDROOT
BRANCH   1   9
ATOM      9  C13 4HY A 933      27.167   7.750   5.068  0.00  0.00    +0.000 C 
BRANCH   9  10
ATOM     10  C14 4HY A 933      25.931   8.651   4.992  0.00  0.00    +0.000 C 
ATOM     11  O3  4HY A 933      25.785   9.328   3.952  0.00  0.00    +0.000 OA
ATOM     12  O4  4HY A 933      25.161   8.641   5.977  0.00  0.00    +0.000 OA
ENDBRANCH   9  10
ENDBRANCH   1   9
BRANCH   4  13
ATOM     13  O2  4HY A 933      25.552   2.317   5.466  0.00  0.00    +0.000 OA
BRANCH  13  14
ATOM     14  C2  4HY A 933      26.079   1.403   4.602  0.00  0.00    +0.000 A 
ATOM     15  C4  4HY A 933      26.345   0.082   4.961  0.00  0.00    +0.000 A 
ATOM     16  C6  4HY A 933      26.882  -0.806   4.032  0.00  0.00    +0.000 A 
ATOM     17  C8  4HY A 933      27.169  -0.371   2.742  0.00  0.00    +0.000 A 
ATOM     18  C10 4HY A 933      26.909   0.946   2.378  0.00  0.00    +0.000 A 
ATOM     19  C12 4HY A 933      26.363   1.827   3.307  0.00  0.00    +0.000 A 
ATOM     20  I2  4HY A 933      27.154  -2.827   4.515  0.00  0.00    +0.000 I 
ATOM     21  O1  4HY A 933      27.717  -1.230   1.840  0.00  0.00    +0.000 OA
ENDBRANCH  13  14
ENDBRANCH   4  13
TORSDOF 4
ENDMDL
MODEL 4
REMARK VINA RESULT:      -4.9      2.219      7.111
REMARK  Name = ligand_pdbs\4HY_A_933 .pdb
REMARK  4 active torsions:
REMARK  status: ('A' for Active; 'I' for Inactive)
REMARK    1  A    between atoms: C1_1  and  C13_13
REMARK    2  A    between atoms: C2_2  and  O2_19
REMARK    3  A    between atoms: C7_7  and  O2_19
REMARK    4  A    between atoms: C13_13  and  C14_14
REMARK                            x       y       z     vdW  Elec       q    Type
REMARK                         _______ _______ _______ _____ _____    ______ ____
ROOT
ATOM      1  C1  4HY A 933      26.702   6.172   5.237  0.00  0.00    +0.000 A 
ATOM      2  C3  4HY A 933      25.402   5.826   4.879  0.00  0.00    +0.000 A 
ATOM      3  C5  4HY A 933      24.965   4.512   5.013  0.00  0.00    +0.000 A 
ATOM      4  C7  4HY A 933      25.827   3.535   5.509  0.00  0.00    +0.000 A 
ATOM      5  C9  4HY A 933      27.131   3.882   5.861  0.00  0.00    +0.000 A 
ATOM      6  C11 4HY A 933      27.567   5.197   5.727  0.00  0.00    +0.000 A 
ATOM      7  I1  4HY A 933      23.014   4.018   4.430  0.00  0.00    +0.000 I 
ATOM      8  I3  4HY A 933      28.486   2.399   6.452  0.00  0.00    +0.000 I 
ENDROOT
BRANCH   1   9
ATOM      9  C13 4HY A 933      27.177   7.620   5.099  0.00  0.00    +0.000 C 
BRANCH   9  10
ATOM     10  C14 4HY A 933      25.972   8.556   4.977  0.00  0.00    +0.000 C 
ATOM     11  O3  4HY A 933      25.859   9.203   3.914  0.00  0.00    +0.000 OA
ATOM     12  O4  4HY A 933      25.190   8.604   5.952  0.00  0.00    +0.000 OA
ENDBRANCH   9  10
ENDBRANCH   1   9
BRANCH   4  13
ATOM     13  O2  4HY A 933      25.443   2.231   5.587  0.00  0.00    +0.000 OA
BRANCH  13  14
ATOM     14  C2  4HY A 933      25.986   1.372   4.677  0.00  0.00    +0.000 A 
ATOM     15  C4  4HY A 933      26.306   0.049   4.979  0.00  0.00    +0.000 A 
ATOM     16  C6  4HY A 933      26.856  -0.782   4.006  0.00  0.00    +0.000 A 
ATOM     17  C8  4HY A 933      27.104  -0.286   2.729  0.00  0.00    +0.000 A 
ATOM     18  C10 4HY A 933      26.790   1.034   2.423  0.00  0.00    +0.000 A 
ATOM     19  C12 4HY A 933      26.230   1.857   3.396  0.00  0.00    +0.000 A 
ATOM     20  I2  4HY A 933      27.211  -2.809   4.402  0.00  0.00    +0.000 I 
ATOM     21  O1  4HY A 933      27.665  -1.088   1.784  0.00  0.00    +0.000 OA
ENDBRANCH  13  14
ENDBRANCH   4  13
TORSDOF 4
ENDMDL
MODEL 5
REMARK VINA RESULT:      -4.1      1.951      7.420
REMARK  Name = ligand_pdbs\4HY_A_933 .pdb
REMARK  4 active torsions:
REMARK  status: ('A' for Active; 'I' for Inactive)
REMARK    1  A    between atoms: C1_1  and  C13_13
REMARK    2  A    between atoms: C2_2  and  O2_19
REMARK    3  A    between atoms: C7_7  and  O2_19
REMARK    4  A    between atoms: C13_13  and  C14_14
REMARK                            x       y       z     vdW  Elec       q    Type
REMARK                         _______ _______ _______ _____ _____    ______ ____
ROOT
ATOM      1  C1  4HY A 933      25.958   5.842   4.147  0.00  0.00    +0.000 A 
ATOM      2  C3  4HY A 933      27.015   5.745   5.047  0.00  0.00    +0.000 A 
ATOM      3  C5  4HY A 933      27.310   4.527   5.652  0.00  0.00    +0.000 A 
ATOM      4  C7  4HY A 933      26.550   3.397   5.357  0.00  0.00    +0.000 A 
ATOM      5  C9  4HY A 933      25.487   3.498   4.459  0.00  0.00    +0.000 A 
ATOM      6  C11 4HY A 933      25.193   4.715   3.854  0.00  0.00    +0.000 A 
ATOM      7  I1  4HY A 933      28.884   4.426   7.032  0.00  0.00    +0.000 I 
ATOM      8  I3  4HY A 933      24.236   1.850   4.130  0.00  0.00    +0.000 I 
ENDROOT
BRANCH   1   9
ATOM      9  C13 4HY A 933      25.642   7.179   3.474  0.00  0.00    +0.000 C 
BRANCH   9  10
ATOM     10  C14 4HY A 933      25.631   8.300   4.517  0.00  0.00    +0.000 C 
ATOM     11  O3  4HY A 933      25.025   8.075   5.587  0.00  0.00    +0.000 OA
ATOM     12  O4  4HY A 933      26.229   9.357   4.220  0.00  0.00    +0.000 OA
ENDBRANCH   9  10
ENDBRANCH   1   9
BRANCH   4  13
ATOM     13  O2  4HY A 933      26.778   2.211   5.986  0.00  0.00    +0.000 OA
BRANCH  13  14
ATOM     14  C2  4HY A 933      27.503   1.279   5.304  0.00  0.00    +0.000 A 
ATOM     15  C4  4HY A 933      27.112  -0.054   5.192  0.00  0.00    +0.000 A 
ATOM     16  C6  4HY A 933      27.895  -0.960   4.479  0.00  0.00    +0.000 A 
ATOM     17  C8  4HY A 933      29.081  -0.537   3.888  0.00  0.00    +0.000 A 
ATOM     18  C10 4HY A 933      29.479   0.792   3.999  0.00  0.00    +0.000 A 
ATOM     19  C12 4HY A 933      28.688   1.695   4.703  0.00  0.00    +0.000 A 
ATOM     20  I2  4HY A 933      27.251  -2.932   4.182  0.00  0.00    +0.000 I 
ATOM     21  O1  4HY A 933      29.860  -1.424   3.212  0.00  0.00    +0.000 OA
ENDBRANCH  13  14
ENDBRANCH   4  13
TORSDOF 4
ENDMDL
MODEL 6
REMARK VINA RESULT:      -3.6      1.890      7.368
REMARK  Name = ligand_pdbs\4HY_A_933 .pdb
REMARK  4 active torsions:
REMARK  status: ('A' for Active; 'I' for Inactive)
REMARK    1  A    between atoms: C1_1  and  C13_13
REMARK    2  A    between atoms: C2_2  and  O2_19
REMARK    3  A    between atoms: C7_7  and  O2_19
REMARK    4  A    between atoms: C13_13  and  C14_14
REMARK                            x       y       z     vdW  Elec       q    Type
REMARK                         _______ _______ _______ _____ _____    ______ ____
ROOT
ATOM      1  C1  4HY A 933      27.108   5.064   4.869  0.00  0.00    +0.000 A 
ATOM      2  C3  4HY A 933      28.006   4.226   5.522  0.00  0.00    +0.000 A 
ATOM      3  C5  4HY A 933      27.698   2.882   5.710  0.00  0.00    +0.000 A 
ATOM      4  C7  4HY A 933      26.490   2.368   5.242  0.00  0.00    +0.000 A 
ATOM      5  C9  4HY A 933      25.589   3.211   4.594  0.00  0.00    +0.000 A 
ATOM      6  C11 4HY A 933      25.897   4.555   4.405  0.00  0.00    +0.000 A 
ATOM      7  I1  4HY A 933      29.057   1.655   6.731  0.00  0.00    +0.000 I 
ATOM      8  I3  4HY A 933      23.703   2.494   4.031  0.00  0.00    +0.000 I 
ENDROOT
BRANCH   1   9
ATOM      9  C13 4HY A 933      27.452   6.540   4.653  0.00  0.00    +0.000 C 
BRANCH   9  10
ATOM     10  C14 4HY A 933      26.178   7.387   4.702  0.00  0.00    +0.000 C 
ATOM     11  O3  4HY A 933      25.523   7.489   3.643  0.00  0.00    +0.000 OA
ATOM     12  O4  4HY A 933      25.890   7.914   5.798  0.00  0.00    +0.000 OA
ENDBRANCH   9  10
ENDBRANCH   1   9
BRANCH   4  13
ATOM     13  O2  4HY A 933      26.140   1.072   5.473  0.00  0.00    +0.000 OA
BRANCH  13  14
ATOM     14  C2  4HY A 933      26.933   0.110   4.922  0.00  0.00    +0.000 A 
ATOM     15  C4  4HY A 933      27.906   0.385   3.962  0.00  0.00    +0.000 A 
ATOM     16  C6  4HY A 933      28.687  -0.642   3.437  0.00  0.00    +0.000 A 
ATOM     17  C8  4HY A 933      28.487  -1.952   3.860  0.00  0.00    +0.000 A 
ATOM     18  C10 4HY A 933      27.516  -2.234   4.815  0.00  0.00    +0.000 A 
ATOM     19  C12 4HY A 933      26.745  -1.203   5.344  0.00  0.00    +0.000 A 
ATOM     20  I2  4HY A 933      30.247  -0.226   2.100  0.00  0.00    +0.000 I 
ATOM     21  O1  4HY A 933      29.232  -2.960   3.331  0.00  0.00    +0.000 OA
ENDBRANCH  13  14
ENDBRANCH   4  13
TORSDOF 4
ENDMDL
MODEL 7
REMARK VINA RESULT:      -3.6      1.522      1.708
REMARK  Name = ligand_pdbs\4HY_A_933 .pdb
REMARK  4 active torsions:
REMARK  status: ('A' for Active; 'I' for Inactive)
REMARK    1  A    between atoms: C1_1  and  C13_13
REMARK    2  A    between atoms: C2_2  and  O2_19
REMARK    3  A    between atoms: C7_7  and  O2_19
REMARK    4  A    between atoms: C13_13  and  C14_14
REMARK                            x       y       z     vdW  Elec       q    Type
REMARK                         _______ _______ _______ _____ _____    ______ ____
ROOT
ATOM      1  C1  4HY A 933      28.849   0.391   3.522  0.00  0.00    +0.000 A 
ATOM      2  C3  4HY A 933      27.487   0.300   3.250  0.00  0.00    +0.000 A 
ATOM      3  C5  4HY A 933      26.570   1.006   4.023  0.00  0.00    +0.000 A 
ATOM      4  C7  4HY A 933      27.012   1.811   5.071  0.00  0.00    +0.000 A 
ATOM      5  C9  4HY A 933      28.376   1.895   5.346  0.00  0.00    +0.000 A 
ATOM      6  C11 4HY A 933      29.293   1.189   4.573  0.00  0.00    +0.000 A 
ATOM      7  I1  4HY A 933      24.525   0.817   3.610  0.00  0.00    +0.000 I 
ATOM      8  I3  4HY A 933      29.043   2.968   7.018  0.00  0.00    +0.000 I 
ENDROOT
BRANCH   1   9
ATOM      9  C13 4HY A 933      29.856  -0.378   2.665  0.00  0.00    +0.000 C 
BRANCH   9  10
ATOM     10  C14 4HY A 933      30.118  -1.757   3.275  0.00  0.00    +0.000 C 
ATOM     11  O3  4HY A 933      29.152  -2.547   3.332  0.00  0.00    +0.000 OA
ATOM     12  O4  4HY A 933      31.281  -1.990   3.672  0.00  0.00    +0.000 OA
ENDBRANCH   9  10
ENDBRANCH   1   9
BRANCH   4  13
ATOM     13  O2  4HY A 933      26.129   2.458   5.882  0.00  0.00    +0.000 OA
BRANCH  13  14
ATOM     14  C2  4HY A 933      25.656   3.660   5.444  0.00  0.00    +0.000 A 
ATOM     15  C4  4HY A 933      26.398   4.838   5.508  0.00  0.00    +0.000 A 
ATOM     16  C6  4HY A 933      25.859   6.036   5.042  0.00  0.00    +0.000 A 
ATOM     17  C8  4HY A 933      24.568   6.061   4.524  0.00  0.00    +0.000 A 
ATOM     18  C10 4HY A 933      23.821   4.889   4.461  0.00  0.00    +0.000 A 
ATOM     19  C12 4HY A 933      24.367   3.694   4.918  0.00  0.00    +0.000 A 
ATOM     20  I2  4HY A 933      27.012   7.785   5.001  0.00  0.00    +0.000 I 
ATOM     21  O1  4HY A 933      24.030   7.233   4.092  0.00  0.00    +0.000 OA
ENDBRANCH  13  14
ENDBRANCH   4  13
TORSDOF 4
ENDMDL
MODEL 8
REMARK VINA RESULT:      -3.5      1.777      2.027
REMARK  Name = ligand_pdbs\4HY_A_933 .pdb
REMARK  4 active torsions:
REMARK  status: ('A' for Active; 'I' for Inactive)
REMARK    1  A    between atoms: C1_1  and  C13_13
REMARK    2  A    between atoms: C2_2  and  O2_19
REMARK    3  A    between atoms: C7_7  and  O2_19
REMARK    4  A    between atoms: C13_13  and  C14_14
REMARK                            x       y       z     vdW  Elec       q    Type
REMARK                         _______ _______ _______ _____ _____    ______ ____
ROOT
ATOM      1  C1  4HY A 933      27.516  -0.614   5.159  0.00  0.00    +0.000 A 
ATOM      2  C3  4HY A 933      26.743  -0.137   4.104  0.00  0.00    +0.000 A 
ATOM      3  C5  4HY A 933      26.998   1.119   3.562  0.00  0.00    +0.000 A 
ATOM      4  C7  4HY A 933      28.031   1.904   4.070  0.00  0.00    +0.000 A 
ATOM      5  C9  4HY A 933      28.800   1.427   5.130  0.00  0.00    +0.000 A 
ATOM      6  C11 4HY A 933      28.546   0.171   5.672  0.00  0.00    +0.000 A 
ATOM      7  I1  4HY A 933      25.790   1.822   2.001  0.00  0.00    +0.000 I 
ATOM      8  I3  4HY A 933      30.248   2.658   6.011  0.00  0.00    +0.000 I 
ENDROOT
BRANCH   1   9
ATOM      9  C13 4HY A 933      27.241  -2.000   5.747  0.00  0.00    +0.000 C 
BRANCH   9  10
ATOM     10  C14 4HY A 933      27.193  -3.043   4.627  0.00  0.00    +0.000 C 
ATOM     11  O3  4HY A 933      26.103  -3.623   4.438  0.00  0.00    +0.000 OA
ATOM     12  O4  4HY A 933      28.249  -3.236   3.987  0.00  0.00    +0.000 OA
ENDBRANCH   9  10
ENDBRANCH   1   9
BRANCH   4  13
ATOM     13  O2  4HY A 933      28.256   3.162   3.599  0.00  0.00    +0.000 OA
BRANCH  13  14
ATOM     14  C2  4HY A 933      27.385   4.134   3.994  0.00  0.00    +0.000 A 
ATOM     15  C4  4HY A 933      26.003   3.952   4.018  0.00  0.00    +0.000 A 
ATOM     16  C6  4HY A 933      25.164   4.984   4.433  0.00  0.00    +0.000 A 
ATOM     17  C8  4HY A 933      25.706   6.209   4.812  0.00  0.00    +0.000 A 
ATOM     18  C10 4HY A 933      27.084   6.398   4.787  0.00  0.00    +0.000 A 
ATOM     19  C12 4HY A 933      27.918   5.360   4.381  0.00  0.00    +0.000 A 
ATOM     20  I2  4HY A 933      23.098   4.681   4.610  0.00  0.00    +0.000 I 
ATOM     21  O1  4HY A 933      24.887   7.226   5.194  0.00  0.00    +0.000 OA
ENDBRANCH  13  14
ENDBRANCH   4  13
TORSDOF 4
ENDMDL
MODEL 9
REMARK VINA RESULT:      -3.5      2.073      6.977
REMARK  Name = ligand_pdbs\4HY_A_933 .pdb
REMARK  4 active torsions:
REMARK  status: ('A' for Active; 'I' for Inactive)
REMARK    1  A    between atoms: C1_1  and  C13_13
REMARK    2  A    between atoms: C2_2  and  O2_19
REMARK    3  A    between atoms: C7_7  and  O2_19
REMARK    4  A    between atoms: C13_13  and  C14_14
REMARK                            x       y       z     vdW  Elec       q    Type
REMARK                         _______ _______ _______ _____ _____    ______ ____
ROOT
ATOM      1  C1  4HY A 933      25.621   5.292   4.161  0.00  0.00    +0.000 A 
ATOM      2  C3  4HY A 933      25.602   4.285   3.201  0.00  0.00    +0.000 A 
ATOM      3  C5  4HY A 933      25.548   2.950   3.588  0.00  0.00    +0.000 A 
ATOM      4  C7  4HY A 933      25.509   2.615   4.940  0.00  0.00    +0.000 A 
ATOM      5  C9  4HY A 933      25.534   3.625   5.901  0.00  0.00    +0.000 A 
ATOM      6  C11 4HY A 933      25.588   4.960   5.513  0.00  0.00    +0.000 A 
ATOM      7  I1  4HY A 933      25.559   1.458   2.117  0.00  0.00    +0.000 I 
ATOM      8  I3  4HY A 933      25.641   3.134   7.934  0.00  0.00    +0.000 I 
ENDROOT
BRANCH   1   9
ATOM      9  C13 4HY A 933      25.670   6.761   3.733  0.00  0.00    +0.000 C 
BRANCH   9  10
ATOM     10  C14 4HY A 933      26.216   7.621   4.876  0.00  0.00    +0.000 C 
ATOM     11  O3  4HY A 933      27.426   7.492   5.157  0.00  0.00    +0.000 OA
ATOM     12  O4  4HY A 933      25.408   8.389   5.442  0.00  0.00    +0.000 OA
ENDBRANCH   9  10
ENDBRANCH   1   9
BRANCH   4  13
ATOM     13  O2  4HY A 933      25.522   1.314   5.343  0.00  0.00    +0.000 OA
BRANCH  13  14
ATOM     14  C2  4HY A 933      26.678   0.617   5.145  0.00  0.00    +0.000 A 
ATOM     15  C4  4HY A 933      27.905   1.015   5.673  0.00  0.00    +0.000 A 
ATOM     16  C6  4HY A 933      29.051   0.259   5.436  0.00  0.00    +0.000 A 
ATOM     17  C8  4HY A 933      28.976  -0.891   4.657  0.00  0.00    +0.000 A 
ATOM     18  C10 4HY A 933      27.754  -1.292   4.124  0.00  0.00    +0.000 A 
ATOM     19  C12 4HY A 933      26.610  -0.539   4.372  0.00  0.00    +0.000 A 
ATOM     20  I2  4HY A 933      30.874   0.765   6.338  0.00  0.00    +0.000 I 
ATOM     21  O1  4HY A 933      30.097  -1.617   4.403  0.00  0.00    +0.000 OA
ENDBRANCH  13  14
ENDBRANCH   4  13
TORSDOF 4
ENDMDL
