MODEL 1
REMARK VINA RESULT:      -5.1      0.000      0.000
REMARK  Name = ligand_pdbs\4HY.pdb
REMARK  4 active torsions:
REMARK  status: ('A' for Active; 'I' for Inactive)
REMARK    1  A    between atoms: C1_1  and  C13_13
REMARK    2  A    between atoms: C2_2  and  O2_19
REMARK    3  A    between atoms: C7_7  and  O2_19
REMARK    4  A    between atoms: C13_13  and  C14_14
REMARK                            x       y       z     vdW  Elec       q    Type
REMARK                         _______ _______ _______ _____ _____    ______ ____
ROOT
ATOM      1  C1  4HY A 933      27.693  -0.184   3.572  0.00  0.00    +0.000 A 
ATOM      2  C3  4HY A 933      26.410   0.351   3.633  0.00  0.00    +0.000 A 
ATOM      3  C5  4HY A 933      26.177   1.532   4.332  0.00  0.00    +0.000 A 
ATOM      4  C7  4HY A 933      27.229   2.186   4.971  0.00  0.00    +0.000 A 
ATOM      5  C9  4HY A 933      28.512   1.645   4.913  0.00  0.00    +0.000 A 
ATOM      6  C11 4HY A 933      28.745   0.465   4.214  0.00  0.00    +0.000 A 
ATOM      7  I1  4HY A 933      24.226   2.290   4.437  0.00  0.00    +0.000 I 
ATOM      8  I3  4HY A 933      30.070   2.526   6.002  0.00  0.00    +0.000 I 
ENDROOT
BRANCH   1   9
ATOM      9  C13 4HY A 933      27.950  -1.476   2.794  0.00  0.00    +0.000 C 
BRANCH   9  10
ATOM     10  C14 4HY A 933      28.445  -2.569   3.744  0.00  0.00    +0.000 C 
ATOM     11  O3  4HY A 933      27.643  -2.974   4.612  0.00  0.00    +0.000 OA
ATOM     12  O4  4HY A 933      29.617  -2.975   3.579  0.00  0.00    +0.000 OA
ENDBRANCH   9  10
ENDBRANCH   1   9
BRANCH   4  13
ATOM     13  O2  4HY A 933      27.012   3.306   5.715  0.00  0.00    +0.000 OA
BRANCH  13  14
ATOM     14  C2  4HY A 933      26.655   4.437   5.041  0.00  0.00    +0.000 A 
ATOM     15  C4  4HY A 933      26.131   5.564   5.672  0.00  0.00    +0.000 A 
ATOM     16  C6  4HY A 933      25.787   6.690   4.928  0.00  0.00    +0.000 A 
ATOM     17  C8  4HY A 933      25.952   6.688   3.547  0.00  0.00    +0.000 A 
ATOM     18  C10 4HY A 933      26.473   5.565   2.911  0.00  0.00    +0.000 A 
ATOM     19  C12 4HY A 933      26.824   4.446   3.659  0.00  0.00    +0.000 A 
ATOM     20  I2  4HY A 933      25.130   8.440   5.876  0.00  0.00    +0.000 I 
ATOM     21  O1  4HY A 933      25.594   7.777   2.816  0.00  0.00    +0.000 OA
ENDBRANCH  13  14
ENDBRANCH   4  13
TORSDOF 4
ENDMDL
MODEL 2
REMARK VINA RESULT:      -5.0      0.169      2.257
REMARK  Name = ligand_pdbs\4HY.pdb
REMARK  4 active torsions:
REMARK  status: ('A' for Active; 'I' for Inactive)
REMARK    1  A    between atoms: C1_1  and  C13_13
REMARK    2  A    between atoms: C2_2  and  O2_19
REMARK    3  A    between atoms: C7_7  and  O2_19
REMARK    4  A    between atoms: C13_13  and  C14_14
REMARK                            x       y       z     vdW  Elec       q    Type
REMARK                         _______ _______ _______ _____ _____    ______ ____
ROOT
ATOM      1  C1  4HY A 933      27.831  -0.146   3.605  0.00  0.00    +0.000 A 
ATOM      2  C3  4HY A 933      28.841   0.521   4.292  0.00  0.00    +0.000 A 
ATOM      3  C5  4HY A 933      28.539   1.634   5.071  0.00  0.00    +0.000 A 
ATOM      4  C7  4HY A 933      27.223   2.084   5.169  0.00  0.00    +0.000 A 
ATOM      5  C9  4HY A 933      26.215   1.417   4.475  0.00  0.00    +0.000 A 
ATOM      6  C11 4HY A 933      26.517   0.304   3.697  0.00  0.00    +0.000 A 
ATOM      7  I1  4HY A 933      30.088   2.639   6.062  0.00  0.00    +0.000 I 
ATOM      8  I3  4HY A 933      24.262   2.176   4.481  0.00  0.00    +0.000 I 
ENDROOT
BRANCH   1   9
ATOM      9  C13 4HY A 933      28.163  -1.377   2.758  0.00  0.00    +0.000 C 
BRANCH   9  10
ATOM     10  C14 4HY A 933      28.603  -2.531   3.662  0.00  0.00    +0.000 C 
ATOM     11  O3  4HY A 933      29.760  -2.973   3.497  0.00  0.00    +0.000 OA
ATOM     12  O4  4HY A 933      27.771  -2.946   4.498  0.00  0.00    +0.000 OA
ENDBRANCH   9  10
ENDBRANCH   1   9
BRANCH   4  13
ATOM     13  O2  4HY A 933      26.915   3.209   5.872  0.00  0.00    +0.000 OA
BRANCH  13  14
ATOM     14  C2  4HY A 933      26.601   4.322   5.149  0.00  0.00    +0.000 A 
ATOM     15  C4  4HY A 933      26.074   5.478   5.724  0.00  0.00    +0.000 A 
ATOM     16  C6  4HY A 933      25.776   6.585   4.933  0.00  0.00    +0.000 A 
ATOM     17  C8  4HY A 933      25.990   6.534   3.559  0.00  0.00    +0.000 A 
ATOM     18  C10 4HY A 933      26.513   5.382   2.978  0.00  0.00    +0.000 A 
ATOM     19  C12 4HY A 933      26.819   4.283   3.775  0.00  0.00    +0.000 A 
ATOM     20  I2  4HY A 933      25.117   8.376   5.799  0.00  0.00    +0.000 I 
ATOM     21  O1  4HY A 933      25.676   7.604   2.780  0.00  0.00    +0.000 OA
ENDBRANCH  13  14
ENDBRANCH   4  13
TORSDOF 4
ENDMDL
MODEL 3
REMARK VINA RESULT:      -4.9      2.155      7.439
REMARK  Name = ligand_pdbs\4HY.pdb
REMARK  4 active torsions:
REMARK  status: ('A' for Active; 'I' for Inactive)
REMARK    1  A    between atoms: C1_1  and  C13_13
REMARK    2  A    between atoms: C2_2  and  O2_19
REMARK    3  A    between atoms: C7_7  and  O2_19
REMARK    4  A    between atoms: C13_13  and  C14_14
REMARK                            x       y       z     vdW  Elec       q    Type
REMARK                         _______ _______ _______ _____ _____    ______ ____
ROOT
ATOM      1  C1  4HY A 933      26.736   6.275   5.172  0.00  0.00    +0.000 A 
ATOM      2  C3  4HY A 933      27.634   5.314   5.625  0.00  0.00    +0.000 A 
ATOM      3  C5  4HY A 933      27.248   3.979   5.704  0.00  0.00    +0.000 A 
ATOM      4  C7  4HY A 933      25.962   3.599   5.327  0.00  0.00    +0.000 A 
ATOM      5  C9  4HY A 933      25.062   4.565   4.879  0.00  0.00    +0.000 A 
ATOM      6  C11 4HY A 933      25.448   5.899   4.799  0.00  0.00    +0.000 A 
ATOM      7  I1  4HY A 933      28.612   2.562   6.427  0.00  0.00    +0.000 I 
ATOM      8  I3  4HY A 933      23.078   4.036   4.464  0.00  0.00    +0.000 I 
ENDROOT
BRANCH   1   9
ATOM      9  C13 4HY A 933      27.165   7.741   5.075  0.00  0.00    +0.000 C 
BRANCH   9  10
ATOM     10  C14 4HY A 933      25.931   8.644   4.996  0.00  0.00    +0.000 C 
ATOM     11  O3  4HY A 933      25.157   8.636   5.977  0.00  0.00    +0.000 OA
ATOM     12  O4  4HY A 933      25.790   9.320   3.954  0.00  0.00    +0.000 OA
ENDBRANCH   9  10
ENDBRANCH   1   9
BRANCH   4  13
ATOM     13  O2  4HY A 933      25.542   2.310   5.458  0.00  0.00    +0.000 OA
BRANCH  13  14
ATOM     14  C2  4HY A 933      26.073   1.396   4.596  0.00  0.00    +0.000 A 
ATOM     15  C4  4HY A 933      26.337   0.075   4.957  0.00  0.00    +0.000 A 
ATOM     16  C6  4HY A 933      26.878  -0.813   4.030  0.00  0.00    +0.000 A 
ATOM     17  C8  4HY A 933      27.171  -0.378   2.741  0.00  0.00    +0.000 A 
ATOM     18  C10 4HY A 933      26.913   0.940   2.376  0.00  0.00    +0.000 A 
ATOM     19  C12 4HY A 933      26.362   1.820   3.303  0.00  0.00    +0.000 A 
ATOM     20  I2  4HY A 933      27.149  -2.834   4.514  0.00  0.00    +0.000 I 
ATOM     21  O1  4HY A 933      27.723  -1.236   1.842  0.00  0.00    +0.000 OA
ENDBRANCH  13  14
ENDBRANCH   4  13
TORSDOF 4
ENDMDL
MODEL 4
REMARK VINA RESULT:      -4.9      2.213      7.089
REMARK  Name = ligand_pdbs\4HY.pdb
REMARK  4 active torsions:
REMARK  status: ('A' for Active; 'I' for Inactive)
REMARK    1  A    between atoms: C1_1  and  C13_13
REMARK    2  A    between atoms: C2_2  and  O2_19
REMARK    3  A    between atoms: C7_7  and  O2_19
REMARK    4  A    between atoms: C13_13  and  C14_14
REMARK                            x       y       z     vdW  Elec       q    Type
REMARK                         _______ _______ _______ _____ _____    ______ ____
ROOT
ATOM      1  C1  4HY A 933      26.717   6.164   5.235  0.00  0.00    +0.000 A 
ATOM      2  C3  4HY A 933      25.414   5.820   4.887  0.00  0.00    +0.000 A 
ATOM      3  C5  4HY A 933      24.978   4.505   5.019  0.00  0.00    +0.000 A 
ATOM      4  C7  4HY A 933      25.844   3.526   5.503  0.00  0.00    +0.000 A 
ATOM      5  C9  4HY A 933      27.150   3.871   5.845  0.00  0.00    +0.000 A 
ATOM      6  C11 4HY A 933      27.585   5.186   5.714  0.00  0.00    +0.000 A 
ATOM      7  I1  4HY A 933      23.022   4.014   4.449  0.00  0.00    +0.000 I 
ATOM      8  I3  4HY A 933      28.510   2.385   6.418  0.00  0.00    +0.000 I 
ENDROOT
BRANCH   1   9
ATOM      9  C13 4HY A 933      27.191   7.612   5.101  0.00  0.00    +0.000 C 
BRANCH   9  10
ATOM     10  C14 4HY A 933      25.985   8.553   5.029  0.00  0.00    +0.000 C 
ATOM     11  O3  4HY A 933      25.260   8.626   6.044  0.00  0.00    +0.000 OA
ATOM     12  O4  4HY A 933      25.816   9.177   3.959  0.00  0.00    +0.000 OA
ENDBRANCH   9  10
ENDBRANCH   1   9
BRANCH   4  13
ATOM     13  O2  4HY A 933      25.460   2.222   5.577  0.00  0.00    +0.000 OA
BRANCH  13  14
ATOM     14  C2  4HY A 933      26.005   1.364   4.667  0.00  0.00    +0.000 A 
ATOM     15  C4  4HY A 933      26.305   0.035   4.961  0.00  0.00    +0.000 A 
ATOM     16  C6  4HY A 933      26.859  -0.794   3.988  0.00  0.00    +0.000 A 
ATOM     17  C8  4HY A 933      27.129  -0.290   2.719  0.00  0.00    +0.000 A 
ATOM     18  C10 4HY A 933      26.835   1.037   2.421  0.00  0.00    +0.000 A 
ATOM     19  C12 4HY A 933      26.272   1.857   3.393  0.00  0.00    +0.000 A 
ATOM     20  I2  4HY A 933      27.185  -2.828   4.371  0.00  0.00    +0.000 I 
ATOM     21  O1  4HY A 933      27.694  -1.089   1.775  0.00  0.00    +0.000 OA
ENDBRANCH  13  14
ENDBRANCH   4  13
TORSDOF 4
ENDMDL
MODEL 5
REMARK VINA RESULT:      -4.0      1.972      7.127
REMARK  Name = ligand_pdbs\4HY.pdb
REMARK  4 active torsions:
REMARK  status: ('A' for Active; 'I' for Inactive)
REMARK    1  A    between atoms: C1_1  and  C13_13
REMARK    2  A    between atoms: C2_2  and  O2_19
REMARK    3  A    between atoms: C7_7  and  O2_19
REMARK    4  A    between atoms: C13_13  and  C14_14
REMARK                            x       y       z     vdW  Elec       q    Type
REMARK                         _______ _______ _______ _____ _____    ______ ____
ROOT
ATOM      1  C1  4HY A 933      26.050   5.801   4.166  0.00  0.00    +0.000 A 
ATOM      2  C3  4HY A 933      25.251   4.693   3.898  0.00  0.00    +0.000 A 
ATOM      3  C5  4HY A 933      25.485   3.487   4.553  0.00  0.00    +0.000 A 
ATOM      4  C7  4HY A 933      26.518   3.385   5.483  0.00  0.00    +0.000 A 
ATOM      5  C9  4HY A 933      27.321   4.494   5.745  0.00  0.00    +0.000 A 
ATOM      6  C11 4HY A 933      27.087   5.699   5.091  0.00  0.00    +0.000 A 
ATOM      7  I1  4HY A 933      24.289   1.828   4.098  0.00  0.00    +0.000 I 
ATOM      8  I3  4HY A 933      28.976   4.312   7.015  0.00  0.00    +0.000 I 
ENDROOT
BRANCH   1   9
ATOM      9  C13 4HY A 933      25.785   7.129   3.454  0.00  0.00    +0.000 C 
BRANCH   9  10
ATOM     10  C14 4HY A 933      25.641   8.254   4.481  0.00  0.00    +0.000 C 
ATOM     11  O3  4HY A 933      26.158   9.355   4.194  0.00  0.00    +0.000 OA
ATOM     12  O4  4HY A 933      25.018   7.987   5.531  0.00  0.00    +0.000 OA
ENDBRANCH   9  10
ENDBRANCH   1   9
BRANCH   4  13
ATOM     13  O2  4HY A 933      26.807   2.198   6.086  0.00  0.00    +0.000 OA
BRANCH  13  14
ATOM     14  C2  4HY A 933      27.506   1.285   5.352  0.00  0.00    +0.000 A 
ATOM     15  C4  4HY A 933      27.131  -0.053   5.247  0.00  0.00    +0.000 A 
ATOM     16  C6  4HY A 933      27.885  -0.938   4.480  0.00  0.00    +0.000 A 
ATOM     17  C8  4HY A 933      29.027  -0.488   3.825  0.00  0.00    +0.000 A 
ATOM     18  C10 4HY A 933      29.409   0.846   3.928  0.00  0.00    +0.000 A 
ATOM     19  C12 4HY A 933      28.646   1.728   4.687  0.00  0.00    +0.000 A 
ATOM     20  I2  4HY A 933      27.257  -2.917   4.199  0.00  0.00    +0.000 I 
ATOM     21  O1  4HY A 933      29.780  -1.356   3.095  0.00  0.00    +0.000 OA
ENDBRANCH  13  14
ENDBRANCH   4  13
TORSDOF 4
ENDMDL
MODEL 6
REMARK VINA RESULT:      -4.0      1.952      7.421
REMARK  Name = ligand_pdbs\4HY.pdb
REMARK  4 active torsions:
REMARK  status: ('A' for Active; 'I' for Inactive)
REMARK    1  A    between atoms: C1_1  and  C13_13
REMARK    2  A    between atoms: C2_2  and  O2_19
REMARK    3  A    between atoms: C7_7  and  O2_19
REMARK    4  A    between atoms: C13_13  and  C14_14
REMARK                            x       y       z     vdW  Elec       q    Type
REMARK                         _______ _______ _______ _____ _____    ______ ____
ROOT
ATOM      1  C1  4HY A 933      25.916   5.881   4.144  0.00  0.00    +0.000 A 
ATOM      2  C3  4HY A 933      26.970   5.792   5.048  0.00  0.00    +0.000 A 
ATOM      3  C5  4HY A 933      27.272   4.575   5.653  0.00  0.00    +0.000 A 
ATOM      4  C7  4HY A 933      26.521   3.440   5.354  0.00  0.00    +0.000 A 
ATOM      5  C9  4HY A 933      25.462   3.533   4.453  0.00  0.00    +0.000 A 
ATOM      6  C11 4HY A 933      25.160   4.749   3.848  0.00  0.00    +0.000 A 
ATOM      7  I1  4HY A 933      28.842   4.485   7.038  0.00  0.00    +0.000 I 
ATOM      8  I3  4HY A 933      24.223   1.877   4.118  0.00  0.00    +0.000 I 
ENDROOT
BRANCH   1   9
ATOM      9  C13 4HY A 933      25.592   7.216   3.471  0.00  0.00    +0.000 C 
BRANCH   9  10
ATOM     10  C14 4HY A 933      25.643   8.348   4.501  0.00  0.00    +0.000 C 
ATOM     11  O3  4HY A 933      25.148   8.115   5.625  0.00  0.00    +0.000 OA
ATOM     12  O4  4HY A 933      26.177   9.419   4.141  0.00  0.00    +0.000 OA
ENDBRANCH   9  10
ENDBRANCH   1   9
BRANCH   4  13
ATOM     13  O2  4HY A 933      26.757   2.255   5.984  0.00  0.00    +0.000 OA
BRANCH  13  14
ATOM     14  C2  4HY A 933      27.477   1.323   5.297  0.00  0.00    +0.000 A 
ATOM     15  C4  4HY A 933      27.100  -0.016   5.210  0.00  0.00    +0.000 A 
ATOM     16  C6  4HY A 933      27.877  -0.922   4.491  0.00  0.00    +0.000 A 
ATOM     17  C8  4HY A 933      29.045  -0.492   3.869  0.00  0.00    +0.000 A 
ATOM     18  C10 4HY A 933      29.429   0.842   3.955  0.00  0.00    +0.000 A 
ATOM     19  C12 4HY A 933      28.644   1.745   4.665  0.00  0.00    +0.000 A 
ATOM     20  I2  4HY A 933      27.250  -2.904   4.233  0.00  0.00    +0.000 I 
ATOM     21  O1  4HY A 933      29.820  -1.379   3.188  0.00  0.00    +0.000 OA
ENDBRANCH  13  14
ENDBRANCH   4  13
TORSDOF 4
ENDMDL
MODEL 7
REMARK VINA RESULT:      -3.6      1.885      7.368
REMARK  Name = ligand_pdbs\4HY.pdb
REMARK  4 active torsions:
REMARK  status: ('A' for Active; 'I' for Inactive)
REMARK    1  A    between atoms: C1_1  and  C13_13
REMARK    2  A    between atoms: C2_2  and  O2_19
REMARK    3  A    between atoms: C7_7  and  O2_19
REMARK    4  A    between atoms: C13_13  and  C14_14
REMARK                            x       y       z     vdW  Elec       q    Type
REMARK                         _______ _______ _______ _____ _____    ______ ____
ROOT
ATOM      1  C1  4HY A 933      27.120   5.099   4.952  0.00  0.00    +0.000 A 
ATOM      2  C3  4HY A 933      28.006   4.239   5.596  0.00  0.00    +0.000 A 
ATOM      3  C5  4HY A 933      27.682   2.896   5.759  0.00  0.00    +0.000 A 
ATOM      4  C7  4HY A 933      26.471   2.404   5.277  0.00  0.00    +0.000 A 
ATOM      5  C9  4HY A 933      25.583   3.268   4.638  0.00  0.00    +0.000 A 
ATOM      6  C11 4HY A 933      25.906   4.611   4.474  0.00  0.00    +0.000 A 
ATOM      7  I1  4HY A 933      29.021   1.637   6.767  0.00  0.00    +0.000 I 
ATOM      8  I3  4HY A 933      23.692   2.582   4.053  0.00  0.00    +0.000 I 
ENDROOT
BRANCH   1   9
ATOM      9  C13 4HY A 933      27.482   6.573   4.763  0.00  0.00    +0.000 C 
BRANCH   9  10
ATOM     10  C14 4HY A 933      26.214   7.431   4.784  0.00  0.00    +0.000 C 
ATOM     11  O3  4HY A 933      25.631   7.610   3.693  0.00  0.00    +0.000 OA
ATOM     12  O4  4HY A 933      25.857   7.888   5.892  0.00  0.00    +0.000 OA
ENDBRANCH   9  10
ENDBRANCH   1   9
BRANCH   4  13
ATOM     13  O2  4HY A 933      26.104   1.108   5.484  0.00  0.00    +0.000 OA
BRANCH  13  14
ATOM     14  C2  4HY A 933      26.898   0.146   4.932  0.00  0.00    +0.000 A 
ATOM     15  C4  4HY A 933      27.873   0.422   3.975  0.00  0.00    +0.000 A 
ATOM     16  C6  4HY A 933      28.654  -0.605   3.450  0.00  0.00    +0.000 A 
ATOM     17  C8  4HY A 933      28.453  -1.916   3.871  0.00  0.00    +0.000 A 
ATOM     18  C10 4HY A 933      27.479  -2.198   4.825  0.00  0.00    +0.000 A 
ATOM     19  C12 4HY A 933      26.708  -1.167   5.353  0.00  0.00    +0.000 A 
ATOM     20  I2  4HY A 933      30.217  -0.189   2.117  0.00  0.00    +0.000 I 
ATOM     21  O1  4HY A 933      29.197  -2.924   3.342  0.00  0.00    +0.000 OA
ENDBRANCH  13  14
ENDBRANCH   4  13
TORSDOF 4
ENDMDL
MODEL 8
REMARK VINA RESULT:      -3.5      2.071      7.080
REMARK  Name = ligand_pdbs\4HY.pdb
REMARK  4 active torsions:
REMARK  status: ('A' for Active; 'I' for Inactive)
REMARK    1  A    between atoms: C1_1  and  C13_13
REMARK    2  A    between atoms: C2_2  and  O2_19
REMARK    3  A    between atoms: C7_7  and  O2_19
REMARK    4  A    between atoms: C13_13  and  C14_14
REMARK                            x       y       z     vdW  Elec       q    Type
REMARK                         _______ _______ _______ _____ _____    ______ ____
ROOT
ATOM      1  C1  4HY A 933      25.537   5.326   4.188  0.00  0.00    +0.000 A 
ATOM      2  C3  4HY A 933      25.559   4.979   5.536  0.00  0.00    +0.000 A 
ATOM      3  C5  4HY A 933      25.602   3.641   5.914  0.00  0.00    +0.000 A 
ATOM      4  C7  4HY A 933      25.627   2.640   4.944  0.00  0.00    +0.000 A 
ATOM      5  C9  4HY A 933      25.598   2.989   3.595  0.00  0.00    +0.000 A 
ATOM      6  C11 4HY A 933      25.556   4.328   3.217  0.00  0.00    +0.000 A 
ATOM      7  I1  4HY A 933      25.596   3.153   7.952  0.00  0.00    +0.000 I 
ATOM      8  I3  4HY A 933      25.470   1.498   2.129  0.00  0.00    +0.000 I 
ENDROOT
BRANCH   1   9
ATOM      9  C13 4HY A 933      25.500   6.798   3.775  0.00  0.00    +0.000 C 
BRANCH   9  10
ATOM     10  C14 4HY A 933      26.084   7.670   4.890  0.00  0.00    +0.000 C 
ATOM     11  O3  4HY A 933      25.299   8.447   5.474  0.00  0.00    +0.000 OA
ATOM     12  O4  4HY A 933      27.303   7.538   5.133  0.00  0.00    +0.000 OA
ENDBRANCH   9  10
ENDBRANCH   1   9
BRANCH   4  13
ATOM     13  O2  4HY A 933      25.603   1.323   5.290  0.00  0.00    +0.000 OA
BRANCH  13  14
ATOM     14  C2  4HY A 933      26.747   0.610   5.089  0.00  0.00    +0.000 A 
ATOM     15  C4  4HY A 933      27.977   0.976   5.635  0.00  0.00    +0.000 A 
ATOM     16  C6  4HY A 933      29.111   0.204   5.395  0.00  0.00    +0.000 A 
ATOM     17  C8  4HY A 933      29.023  -0.930   4.593  0.00  0.00    +0.000 A 
ATOM     18  C10 4HY A 933      27.799  -1.299   4.043  0.00  0.00    +0.000 A 
ATOM     19  C12 4HY A 933      26.667  -0.530   4.295  0.00  0.00    +0.000 A 
ATOM     20  I2  4HY A 933      30.934   0.662   6.322  0.00  0.00    +0.000 I 
ATOM     21  O1  4HY A 933      30.134  -1.671   4.337  0.00  0.00    +0.000 OA
ENDBRANCH  13  14
ENDBRANCH   4  13
TORSDOF 4
ENDMDL
MODEL 9
REMARK VINA RESULT:      -3.5      2.067      6.955
REMARK  Name = ligand_pdbs\4HY.pdb
REMARK  4 active torsions:
REMARK  status: ('A' for Active; 'I' for Inactive)
REMARK    1  A    between atoms: C1_1  and  C13_13
REMARK    2  A    between atoms: C2_2  and  O2_19
REMARK    3  A    between atoms: C7_7  and  O2_19
REMARK    4  A    between atoms: C13_13  and  C14_14
REMARK                            x       y       z     vdW  Elec       q    Type
REMARK                         _______ _______ _______ _____ _____    ______ ____
ROOT
ATOM      1  C1  4HY A 933      25.644   5.281   4.147  0.00  0.00    +0.000 A 
ATOM      2  C3  4HY A 933      25.638   4.267   3.193  0.00  0.00    +0.000 A 
ATOM      3  C5  4HY A 933      25.577   2.935   3.589  0.00  0.00    +0.000 A 
ATOM      4  C7  4HY A 933      25.519   2.609   4.943  0.00  0.00    +0.000 A 
ATOM      5  C9  4HY A 933      25.531   3.625   5.897  0.00  0.00    +0.000 A 
ATOM      6  C11 4HY A 933      25.591   4.957   5.501  0.00  0.00    +0.000 A 
ATOM      7  I1  4HY A 933      25.609   1.432   2.129  0.00  0.00    +0.000 I 
ATOM      8  I3  4HY A 933      25.609   3.148   7.935  0.00  0.00    +0.000 I 
ENDROOT
BRANCH   1   9
ATOM      9  C13 4HY A 933      25.700   6.746   3.710  0.00  0.00    +0.000 C 
BRANCH   9  10
ATOM     10  C14 4HY A 933      26.208   7.617   4.862  0.00  0.00    +0.000 C 
ATOM     11  O3  4HY A 933      25.384   8.390   5.396  0.00  0.00    +0.000 OA
ATOM     12  O4  4HY A 933      27.410   7.490   5.182  0.00  0.00    +0.000 OA
ENDBRANCH   9  10
ENDBRANCH   1   9
BRANCH   4  13
ATOM     13  O2  4HY A 933      25.525   1.310   5.355  0.00  0.00    +0.000 OA
BRANCH  13  14
ATOM     14  C2  4HY A 933      26.674   0.603   5.152  0.00  0.00    +0.000 A 
ATOM     15  C4  4HY A 933      27.910   1.000   5.659  0.00  0.00    +0.000 A 
ATOM     16  C6  4HY A 933      29.048   0.233   5.419  0.00  0.00    +0.000 A 
ATOM     17  C8  4HY A 933      28.956  -0.927   4.656  0.00  0.00    +0.000 A 
ATOM     18  C10 4HY A 933      27.725  -1.327   4.145  0.00  0.00    +0.000 A 
ATOM     19  C12 4HY A 933      26.589  -0.563   4.396  0.00  0.00    +0.000 A 
ATOM     20  I2  4HY A 933      30.885   0.740   6.291  0.00  0.00    +0.000 I 
ATOM     21  O1  4HY A 933      30.070  -1.664   4.399  0.00  0.00    +0.000 OA
ENDBRANCH  13  14
ENDBRANCH   4  13
TORSDOF 4
ENDMDL
