MODEL 1
REMARK VINA RESULT:      -7.0      0.000      0.000
REMARK  Name = ligand_pdbs\4Z2.pdb
REMARK  6 active torsions:
REMARK  status: ('A' for Active; 'I' for Inactive)
REMARK    1  A    between atoms: CAK_4  and  NAJ_5
REMARK    2  A    between atoms: CAG_11  and  CAE_12
REMARK    3  A    between atoms: NAD_14  and  CAC_15
REMARK    4  A    between atoms: CAC_15  and  CAB_16
REMARK    5  A    between atoms: CAB_16  and  CAR_18
REMARK    6  A    between atoms: CAR_18  and  NAS_19
REMARK                            x       y       z     vdW  Elec       q    Type
REMARK                         _______ _______ _______ _____ _____    ______ ____
ROOT
ATOM      1  CAE 4Z2 A 702      27.514   4.239   6.474  0.00  0.00    +0.000 C 
ATOM      2  OAF 4Z2 A 702      26.633   4.248   7.336  0.00  0.00    +0.000 OA
ATOM      3  NAD 4Z2 A 702      27.873   5.316   5.750  0.00  0.00    +0.000 NA
ENDROOT
BRANCH   1  10
ATOM      4  NAJ 4Z2 A 702      27.648  -0.492   5.627  0.00  0.00    +0.000 NA
ATOM      5  CAI 4Z2 A 702      28.256   0.693   5.723  0.00  0.00    +0.000 A 
ATOM      6  CAH 4Z2 A 702      27.539   1.849   6.056  0.00  0.00    +0.000 A 
ATOM      7  NAO 4Z2 A 702      29.580   0.763   5.490  0.00  0.00    +0.000 NA
ATOM      8  CAP 4Z2 A 702      30.272   1.980   5.578  0.00  0.00    +0.000 A 
ATOM      9  CAQ 4Z2 A 702      29.582   3.136   5.909  0.00  0.00    +0.000 A 
ATOM     10  CAG 4Z2 A 702      28.209   3.071   6.155  0.00  0.00    +0.000 A 
BRANCH   4  14
ATOM     11  CAL 4Z2 A 702      29.013  -1.302   3.763  0.00  0.00    +0.000 C 
ATOM     12  CAM 4Z2 A 702      28.447  -2.596   3.186  0.00  0.00    +0.000 C 
ATOM     13  CAN 4Z2 A 702      27.412  -2.582   4.303  0.00  0.00    +0.000 C 
ATOM     14  CAK 4Z2 A 702      28.354  -1.664   5.075  0.00  0.00    +0.000 C 
ENDBRANCH   4  14
ENDBRANCH   1  10
BRANCH   3  15
ATOM     15  CAC 4Z2 A 702      27.225   6.632   5.884  0.00  0.00    +0.000 C 
BRANCH  15  16
ATOM     16  CAB 4Z2 A 702      26.321   6.852   4.652  0.00  0.00    +0.000 C 
ATOM     17  OAA 4Z2 A 702      26.278   8.238   4.308  0.00  0.00    +0.000 OA
BRANCH  16  18
ATOM     18  CAR 4Z2 A 702      24.889   6.355   4.935  0.00  0.00    +0.000 C 
BRANCH  18  19
ATOM     19  NAS 4Z2 A 702      24.542   5.115   4.218  0.00  0.00    +0.000 NA
ATOM     20  CAT 4Z2 A 702      23.902   4.218   5.196  0.00  0.00    +0.000 C 
ATOM     21  CAU 4Z2 A 702      23.498   2.906   4.553  0.00  0.00    +0.000 C 
ATOM     22  CAV 4Z2 A 702      24.584   2.354   3.865  0.00  0.00    +0.000 A 
ATOM     23  CBB 4Z2 A 702      24.567   0.981   3.602  0.00  0.00    +0.000 A 
ATOM     24  CBA 4Z2 A 702      25.630   0.382   2.925  0.00  0.00    +0.000 A 
ATOM     25  CAZ 4Z2 A 702      26.716   1.153   2.502  0.00  0.00    +0.000 A 
ATOM     26  CAY 4Z2 A 702      26.738   2.525   2.759  0.00  0.00    +0.000 A 
ATOM     27  CAW 4Z2 A 702      25.679   3.134   3.433  0.00  0.00    +0.000 A 
ATOM     28  CAX 4Z2 A 702      25.772   4.507   3.670  0.00  0.00    +0.000 C 
ENDBRANCH  18  19
ENDBRANCH  16  18
ENDBRANCH  15  16
ENDBRANCH   3  15
TORSDOF 6
ENDMDL
MODEL 2
REMARK VINA RESULT:      -6.5      4.989      7.486
REMARK  Name = ligand_pdbs\4Z2.pdb
REMARK  6 active torsions:
REMARK  status: ('A' for Active; 'I' for Inactive)
REMARK    1  A    between atoms: CAK_4  and  NAJ_5
REMARK    2  A    between atoms: CAG_11  and  CAE_12
REMARK    3  A    between atoms: NAD_14  and  CAC_15
REMARK    4  A    between atoms: CAC_15  and  CAB_16
REMARK    5  A    between atoms: CAB_16  and  CAR_18
REMARK    6  A    between atoms: CAR_18  and  NAS_19
REMARK                            x       y       z     vdW  Elec       q    Type
REMARK                         _______ _______ _______ _____ _____    ______ ____
ROOT
ATOM      1  CAE 4Z2 A 702      26.467   6.115   4.897  0.00  0.00    +0.000 C 
ATOM      2  OAF 4Z2 A 702      27.651   6.427   4.761  0.00  0.00    +0.000 OA
ATOM      3  NAD 4Z2 A 702      25.515   6.946   5.362  0.00  0.00    +0.000 NA
ENDROOT
BRANCH   1  10
ATOM      4  NAJ 4Z2 A 702      27.269   1.558   3.588  0.00  0.00    +0.000 NA
ATOM      5  CAI 4Z2 A 702      26.437   2.540   3.945  0.00  0.00    +0.000 A 
ATOM      6  CAH 4Z2 A 702      26.914   3.825   4.231  0.00  0.00    +0.000 A 
ATOM      7  NAO 4Z2 A 702      25.119   2.274   4.030  0.00  0.00    +0.000 NA
ATOM      8  CAP 4Z2 A 702      24.199   3.265   4.399  0.00  0.00    +0.000 A 
ATOM      9  CAQ 4Z2 A 702      24.649   4.544   4.685  0.00  0.00    +0.000 A 
ATOM     10  CAG 4Z2 A 702      26.013   4.830   4.595  0.00  0.00    +0.000 A 
BRANCH   4  14
ATOM     11  CAL 4Z2 A 702      27.265  -0.625   4.695  0.00  0.00    +0.000 C 
ATOM     12  CAM 4Z2 A 702      27.692  -1.731   3.735  0.00  0.00    +0.000 C 
ATOM     13  CAN 4Z2 A 702      27.723  -0.688   2.627  0.00  0.00    +0.000 C 
ATOM     14  CAK 4Z2 A 702      26.799   0.163   3.492  0.00  0.00    +0.000 C 
ENDBRANCH   4  14
ENDBRANCH   1  10
BRANCH   3  15
ATOM     15  CAC 4Z2 A 702      25.790   8.327   5.796  0.00  0.00    +0.000 C 
BRANCH  15  16
ATOM     16  CAB 4Z2 A 702      24.498   8.904   6.415  0.00  0.00    +0.000 C 
ATOM     17  OAA 4Z2 A 702      23.379   8.634   5.570  0.00  0.00    +0.000 OA
BRANCH  16  18
ATOM     18  CAR 4Z2 A 702      24.627  10.427   6.616  0.00  0.00    +0.000 C 
BRANCH  18  19
ATOM     19  NAS 4Z2 A 702      23.757  10.958   7.679  0.00  0.00    +0.000 NA
ATOM     20  CAT 4Z2 A 702      24.062  12.394   7.809  0.00  0.00    +0.000 C 
ATOM     21  CAU 4Z2 A 702      23.209  13.041   8.881  0.00  0.00    +0.000 C 
ATOM     22  CAV 4Z2 A 702      23.294  12.308  10.070  0.00  0.00    +0.000 A 
ATOM     23  CBB 4Z2 A 702      22.973  12.956  11.267  0.00  0.00    +0.000 A 
ATOM     24  CBA 4Z2 A 702      23.049  12.270  12.480  0.00  0.00    +0.000 A 
ATOM     25  CAZ 4Z2 A 702      23.444  10.930  12.503  0.00  0.00    +0.000 A 
ATOM     26  CAY 4Z2 A 702      23.764  10.277  11.312  0.00  0.00    +0.000 A 
ATOM     27  CAW 4Z2 A 702      23.688  10.953  10.094  0.00  0.00    +0.000 A 
ATOM     28  CAX 4Z2 A 702      24.036  10.244   8.943  0.00  0.00    +0.000 C 
ENDBRANCH  18  19
ENDBRANCH  16  18
ENDBRANCH  15  16
ENDBRANCH   3  15
TORSDOF 6
ENDMDL
MODEL 3
REMARK VINA RESULT:      -5.8      2.351      6.095
REMARK  Name = ligand_pdbs\4Z2.pdb
REMARK  6 active torsions:
REMARK  status: ('A' for Active; 'I' for Inactive)
REMARK    1  A    between atoms: CAK_4  and  NAJ_5
REMARK    2  A    between atoms: CAG_11  and  CAE_12
REMARK    3  A    between atoms: NAD_14  and  CAC_15
REMARK    4  A    between atoms: CAC_15  and  CAB_16
REMARK    5  A    between atoms: CAB_16  and  CAR_18
REMARK    6  A    between atoms: CAR_18  and  NAS_19
REMARK                            x       y       z     vdW  Elec       q    Type
REMARK                         _______ _______ _______ _____ _____    ______ ____
ROOT
ATOM      1  CAE 4Z2 A 702      28.996   1.241   4.356  0.00  0.00    +0.000 C 
ATOM      2  OAF 4Z2 A 702      29.523   1.046   3.259  0.00  0.00    +0.000 OA
ATOM      3  NAD 4Z2 A 702      28.654   0.261   5.214  0.00  0.00    +0.000 NA
ENDROOT
BRANCH   1  10
ATOM      4  NAJ 4Z2 A 702      27.130   5.610   3.615  0.00  0.00    +0.000 NA
ATOM      5  CAI 4Z2 A 702      27.730   4.717   4.406  0.00  0.00    +0.000 A 
ATOM      6  CAH 4Z2 A 702      28.047   3.435   3.941  0.00  0.00    +0.000 A 
ATOM      7  NAO 4Z2 A 702      28.026   5.068   5.672  0.00  0.00    +0.000 NA
ATOM      8  CAP 4Z2 A 702      28.657   4.172   6.548  0.00  0.00    +0.000 A 
ATOM      9  CAQ 4Z2 A 702      28.981   2.899   6.107  0.00  0.00    +0.000 A 
ATOM     10  CAG 4Z2 A 702      28.681   2.528   4.794  0.00  0.00    +0.000 A 
BRANCH   4  14
ATOM     11  CAL 4Z2 A 702      25.963   6.635   5.507  0.00  0.00    +0.000 C 
ATOM     12  CAM 4Z2 A 702      24.790   7.489   5.034  0.00  0.00    +0.000 C 
ATOM     13  CAN 4Z2 A 702      25.229   7.210   3.603  0.00  0.00    +0.000 C 
ATOM     14  CAK 4Z2 A 702      26.609   6.877   4.161  0.00  0.00    +0.000 C 
ENDBRANCH   4  14
ENDBRANCH   1  10
BRANCH   3  15
ATOM     15  CAC 4Z2 A 702      28.842  -1.171   4.923  0.00  0.00    +0.000 C 
BRANCH  15  16
ATOM     16  CAB 4Z2 A 702      27.453  -1.803   4.692  0.00  0.00    +0.000 C 
ATOM     17  OAA 4Z2 A 702      27.559  -3.225   4.626  0.00  0.00    +0.000 OA
BRANCH  16  18
ATOM     18  CAR 4Z2 A 702      26.831  -1.279   3.382  0.00  0.00    +0.000 C 
BRANCH  18  19
ATOM     19  NAS 4Z2 A 702      25.722  -0.332   3.592  0.00  0.00    +0.000 NA
ATOM     20  CAT 4Z2 A 702      25.768   0.638   2.483  0.00  0.00    +0.000 C 
ATOM     21  CAU 4Z2 A 702      24.655   1.660   2.603  0.00  0.00    +0.000 C 
ATOM     22  CAV 4Z2 A 702      24.658   2.224   3.883  0.00  0.00    +0.000 A 
ATOM     23  CBB 4Z2 A 702      24.043   3.468   4.055  0.00  0.00    +0.000 A 
ATOM     24  CBA 4Z2 A 702      24.025   4.076   5.312  0.00  0.00    +0.000 A 
ATOM     25  CAZ 4Z2 A 702      24.620   3.442   6.406  0.00  0.00    +0.000 A 
ATOM     26  CAY 4Z2 A 702      25.234   2.199   6.241  0.00  0.00    +0.000 A 
ATOM     27  CAW 4Z2 A 702      25.255   1.582   4.990  0.00  0.00    +0.000 A 
ATOM     28  CAX 4Z2 A 702      25.898   0.347   4.893  0.00  0.00    +0.000 C 
ENDBRANCH  18  19
ENDBRANCH  16  18
ENDBRANCH  15  16
ENDBRANCH   3  15
TORSDOF 6
ENDMDL
MODEL 4
REMARK VINA RESULT:      -5.6      2.609      6.626
REMARK  Name = ligand_pdbs\4Z2.pdb
REMARK  6 active torsions:
REMARK  status: ('A' for Active; 'I' for Inactive)
REMARK    1  A    between atoms: CAK_4  and  NAJ_5
REMARK    2  A    between atoms: CAG_11  and  CAE_12
REMARK    3  A    between atoms: NAD_14  and  CAC_15
REMARK    4  A    between atoms: CAC_15  and  CAB_16
REMARK    5  A    between atoms: CAB_16  and  CAR_18
REMARK    6  A    between atoms: CAR_18  and  NAS_19
REMARK                            x       y       z     vdW  Elec       q    Type
REMARK                         _______ _______ _______ _____ _____    ______ ____
ROOT
ATOM      1  CAE 4Z2 A 702      26.504  -0.643   4.569  0.00  0.00    +0.000 C 
ATOM      2  OAF 4Z2 A 702      26.495  -1.264   5.633  0.00  0.00    +0.000 OA
ATOM      3  NAD 4Z2 A 702      27.311  -0.935   3.532  0.00  0.00    +0.000 NA
ENDROOT
BRANCH   1  10
ATOM      4  NAJ 4Z2 A 702      24.790   3.655   5.875  0.00  0.00    +0.000 NA
ATOM      5  CAI 4Z2 A 702      24.828   2.623   5.028  0.00  0.00    +0.000 A 
ATOM      6  CAH 4Z2 A 702      25.662   1.524   5.265  0.00  0.00    +0.000 A 
ATOM      7  NAO 4Z2 A 702      24.047   2.656   3.932  0.00  0.00    +0.000 NA
ATOM      8  CAP 4Z2 A 702      24.044   1.600   3.009  0.00  0.00    +0.000 A 
ATOM      9  CAQ 4Z2 A 702      24.861   0.501   3.224  0.00  0.00    +0.000 A 
ATOM     10  CAG 4Z2 A 702      25.671   0.458   4.361  0.00  0.00    +0.000 A 
BRANCH   4  14
ATOM     11  CAL 4Z2 A 702      24.055   5.077   4.022  0.00  0.00    +0.000 C 
ATOM     12  CAM 4Z2 A 702      24.463   6.530   4.246  0.00  0.00    +0.000 C 
ATOM     13  CAN 4Z2 A 702      24.985   6.119   5.616  0.00  0.00    +0.000 C 
ATOM     14  CAK 4Z2 A 702      24.076   4.898   5.524  0.00  0.00    +0.000 C 
ENDBRANCH   4  14
ENDBRANCH   1  10
BRANCH   3  15
ATOM     15  CAC 4Z2 A 702      28.308  -2.019   3.563  0.00  0.00    +0.000 C 
BRANCH  15  16
ATOM     16  CAB 4Z2 A 702      29.706  -1.384   3.718  0.00  0.00    +0.000 C 
ATOM     17  OAA 4Z2 A 702      30.724  -2.357   3.480  0.00  0.00    +0.000 OA
BRANCH  16  18
ATOM     18  CAR 4Z2 A 702      29.883  -0.801   5.135  0.00  0.00    +0.000 C 
BRANCH  18  19
ATOM     19  NAS 4Z2 A 702      29.950   0.670   5.165  0.00  0.00    +0.000 NA
ATOM     20  CAT 4Z2 A 702      29.433   1.098   6.476  0.00  0.00    +0.000 C 
ATOM     21  CAU 4Z2 A 702      29.466   2.608   6.612  0.00  0.00    +0.000 C 
ATOM     22  CAV 4Z2 A 702      28.844   3.202   5.508  0.00  0.00    +0.000 A 
ATOM     23  CBB 4Z2 A 702      28.369   4.510   5.647  0.00  0.00    +0.000 A 
ATOM     24  CBA 4Z2 A 702      27.735   5.144   4.577  0.00  0.00    +0.000 A 
ATOM     25  CAZ 4Z2 A 702      27.576   4.475   3.360  0.00  0.00    +0.000 A 
ATOM     26  CAY 4Z2 A 702      28.050   3.171   3.215  0.00  0.00    +0.000 A 
ATOM     27  CAW 4Z2 A 702      28.688   2.529   4.277  0.00  0.00    +0.000 A 
ATOM     28  CAX 4Z2 A 702      29.125   1.219   4.068  0.00  0.00    +0.000 C 
ENDBRANCH  18  19
ENDBRANCH  16  18
ENDBRANCH  15  16
ENDBRANCH   3  15
TORSDOF 6
ENDMDL
MODEL 5
REMARK VINA RESULT:      -5.5      1.514      3.579
REMARK  Name = ligand_pdbs\4Z2.pdb
REMARK  6 active torsions:
REMARK  status: ('A' for Active; 'I' for Inactive)
REMARK    1  A    between atoms: CAK_4  and  NAJ_5
REMARK    2  A    between atoms: CAG_11  and  CAE_12
REMARK    3  A    between atoms: NAD_14  and  CAC_15
REMARK    4  A    between atoms: CAC_15  and  CAB_16
REMARK    5  A    between atoms: CAB_16  and  CAR_18
REMARK    6  A    between atoms: CAR_18  and  NAS_19
REMARK                            x       y       z     vdW  Elec       q    Type
REMARK                         _______ _______ _______ _____ _____    ______ ____
ROOT
ATOM      1  CAE 4Z2 A 702      24.392   3.945   5.338  0.00  0.00    +0.000 C 
ATOM      2  OAF 4Z2 A 702      24.252   3.967   6.562  0.00  0.00    +0.000 OA
ATOM      3  NAD 4Z2 A 702      24.255   5.023   4.543  0.00  0.00    +0.000 NA
ENDROOT
BRANCH   1  10
ATOM      4  NAJ 4Z2 A 702      26.616  -0.308   5.050  0.00  0.00    +0.000 NA
ATOM      5  CAI 4Z2 A 702      25.806   0.621   4.538  0.00  0.00    +0.000 A 
ATOM      6  CAH 4Z2 A 702      25.534   1.807   5.231  0.00  0.00    +0.000 A 
ATOM      7  NAO 4Z2 A 702      25.244   0.398   3.334  0.00  0.00    +0.000 NA
ATOM      8  CAP 4Z2 A 702      24.385   1.338   2.746  0.00  0.00    +0.000 A 
ATOM      9  CAQ 4Z2 A 702      24.105   2.520   3.414  0.00  0.00    +0.000 A 
ATOM     10  CAG 4Z2 A 702      24.687   2.761   4.661  0.00  0.00    +0.000 A 
BRANCH   4  14
ATOM     11  CAL 4Z2 A 702      27.686  -2.503   5.223  0.00  0.00    +0.000 C 
ATOM     12  CAM 4Z2 A 702      28.342  -2.902   3.904  0.00  0.00    +0.000 C 
ATOM     13  CAN 4Z2 A 702      27.753  -1.641   3.287  0.00  0.00    +0.000 C 
ATOM     14  CAK 4Z2 A 702      26.736  -1.639   4.424  0.00  0.00    +0.000 C 
ENDBRANCH   4  14
ENDBRANCH   1  10
BRANCH   3  15
ATOM     15  CAC 4Z2 A 702      23.886   6.357   5.046  0.00  0.00    +0.000 C 
BRANCH  15  16
ATOM     16  CAB 4Z2 A 702      25.182   7.105   5.427  0.00  0.00    +0.000 C 
ATOM     17  OAA 4Z2 A 702      24.873   8.377   5.996  0.00  0.00    +0.000 OA
BRANCH  16  18
ATOM     18  CAR 4Z2 A 702      26.076   7.307   4.187  0.00  0.00    +0.000 C 
BRANCH  18  19
ATOM     19  NAS 4Z2 A 702      27.166   6.322   4.077  0.00  0.00    +0.000 NA
ATOM     20  CAT 4Z2 A 702      26.738   5.315   3.091  0.00  0.00    +0.000 C 
ATOM     21  CAU 4Z2 A 702      27.800   4.251   2.898  0.00  0.00    +0.000 C 
ATOM     22  CAV 4Z2 A 702      28.193   3.735   4.138  0.00  0.00    +0.000 A 
ATOM     23  CBB 4Z2 A 702      28.796   2.473   4.165  0.00  0.00    +0.000 A 
ATOM     24  CBA 4Z2 A 702      29.200   1.913   5.378  0.00  0.00    +0.000 A 
ATOM     25  CAZ 4Z2 A 702      29.006   2.613   6.572  0.00  0.00    +0.000 A 
ATOM     26  CAY 4Z2 A 702      28.408   3.873   6.552  0.00  0.00    +0.000 A 
ATOM     27  CAW 4Z2 A 702      28.003   4.444   5.344  0.00  0.00    +0.000 A 
ATOM     28  CAX 4Z2 A 702      27.398   5.701   5.398  0.00  0.00    +0.000 C 
ENDBRANCH  18  19
ENDBRANCH  16  18
ENDBRANCH  15  16
ENDBRANCH   3  15
TORSDOF 6
ENDMDL
MODEL 6
REMARK VINA RESULT:      -5.5      1.500      3.859
REMARK  Name = ligand_pdbs\4Z2.pdb
REMARK  6 active torsions:
REMARK  status: ('A' for Active; 'I' for Inactive)
REMARK    1  A    between atoms: CAK_4  and  NAJ_5
REMARK    2  A    between atoms: CAG_11  and  CAE_12
REMARK    3  A    between atoms: NAD_14  and  CAC_15
REMARK    4  A    between atoms: CAC_15  and  CAB_16
REMARK    5  A    between atoms: CAB_16  and  CAR_18
REMARK    6  A    between atoms: CAR_18  and  NAS_19
REMARK                            x       y       z     vdW  Elec       q    Type
REMARK                         _______ _______ _______ _____ _____    ______ ____
ROOT
ATOM      1  CAE 4Z2 A 702      24.922   3.968   3.894  0.00  0.00    +0.000 C 
ATOM      2  OAF 4Z2 A 702      23.807   4.253   4.335  0.00  0.00    +0.000 OA
ATOM      3  NAD 4Z2 A 702      25.897   4.870   3.668  0.00  0.00    +0.000 NA
ENDROOT
BRANCH   1  10
ATOM      4  NAJ 4Z2 A 702      28.173   0.594   2.818  0.00  0.00    +0.000 NA
ATOM      5  CAI 4Z2 A 702      26.910   0.970   3.031  0.00  0.00    +0.000 A 
ATOM      6  CAH 4Z2 A 702      26.594   2.296   3.351  0.00  0.00    +0.000 A 
ATOM      7  NAO 4Z2 A 702      25.934   0.047   2.935  0.00  0.00    +0.000 NA
ATOM      8  CAP 4Z2 A 702      24.589   0.385   3.147  0.00  0.00    +0.000 A 
ATOM      9  CAQ 4Z2 A 702      24.254   1.692   3.463  0.00  0.00    +0.000 A 
ATOM     10  CAG 4Z2 A 702      25.260   2.656   3.560  0.00  0.00    +0.000 A 
BRANCH   4  14
ATOM     11  CAL 4Z2 A 702      28.204  -1.566   3.971  0.00  0.00    +0.000 C 
ATOM     12  CAM 4Z2 A 702      29.579  -2.221   3.877  0.00  0.00    +0.000 C 
ATOM     13  CAN 4Z2 A 702      30.007  -1.076   2.970  0.00  0.00    +0.000 C 
ATOM     14  CAK 4Z2 A 702      28.528  -0.833   2.689  0.00  0.00    +0.000 C 
ENDBRANCH   4  14
ENDBRANCH   1  10
BRANCH   3  15
ATOM     15  CAC 4Z2 A 702      25.729   6.316   3.893  0.00  0.00    +0.000 C 
BRANCH  15  16
ATOM     16  CAB 4Z2 A 702      26.077   6.618   5.367  0.00  0.00    +0.000 C 
ATOM     17  OAA 4Z2 A 702      26.073   8.027   5.599  0.00  0.00    +0.000 OA
BRANCH  16  18
ATOM     18  CAR 4Z2 A 702      27.464   6.048   5.724  0.00  0.00    +0.000 C 
BRANCH  18  19
ATOM     19  NAS 4Z2 A 702      27.560   4.586   5.572  0.00  0.00    +0.000 NA
ATOM     20  CAT 4Z2 A 702      26.905   3.988   6.749  0.00  0.00    +0.000 C 
ATOM     21  CAU 4Z2 A 702      26.944   2.474   6.687  0.00  0.00    +0.000 C 
ATOM     22  CAV 4Z2 A 702      28.251   2.037   6.451  0.00  0.00    +0.000 A 
ATOM     23  CBB 4Z2 A 702      28.580   0.724   6.805  0.00  0.00    +0.000 A 
ATOM     24  CBA 4Z2 A 702      29.874   0.243   6.597  0.00  0.00    +0.000 A 
ATOM     25  CAZ 4Z2 A 702      30.846   1.070   6.028  0.00  0.00    +0.000 A 
ATOM     26  CAY 4Z2 A 702      30.524   2.380   5.670  0.00  0.00    +0.000 A 
ATOM     27  CAW 4Z2 A 702      29.233   2.870   5.872  0.00  0.00    +0.000 A 
ATOM     28  CAX 4Z2 A 702      28.983   4.194   5.505  0.00  0.00    +0.000 C 
ENDBRANCH  18  19
ENDBRANCH  16  18
ENDBRANCH  15  16
ENDBRANCH   3  15
TORSDOF 6
ENDMDL
MODEL 7
REMARK VINA RESULT:      -5.1      2.300      7.039
REMARK  Name = ligand_pdbs\4Z2.pdb
REMARK  6 active torsions:
REMARK  status: ('A' for Active; 'I' for Inactive)
REMARK    1  A    between atoms: CAK_4  and  NAJ_5
REMARK    2  A    between atoms: CAG_11  and  CAE_12
REMARK    3  A    between atoms: NAD_14  and  CAC_15
REMARK    4  A    between atoms: CAC_15  and  CAB_16
REMARK    5  A    between atoms: CAB_16  and  CAR_18
REMARK    6  A    between atoms: CAR_18  and  NAS_19
REMARK                            x       y       z     vdW  Elec       q    Type
REMARK                         _______ _______ _______ _____ _____    ______ ____
ROOT
ATOM      1  CAE 4Z2 A 702      26.193   0.824   2.307  0.00  0.00    +0.000 C 
ATOM      2  OAF 4Z2 A 702      25.812   0.566   1.164  0.00  0.00    +0.000 OA
ATOM      3  NAD 4Z2 A 702      27.148   0.134   2.958  0.00  0.00    +0.000 NA
ENDROOT
BRANCH   1  10
ATOM      4  NAJ 4Z2 A 702      26.308   5.306   4.046  0.00  0.00    +0.000 NA
ATOM      5  CAI 4Z2 A 702      25.700   4.126   3.902  0.00  0.00    +0.000 A 
ATOM      6  CAH 4Z2 A 702      26.291   3.091   3.168  0.00  0.00    +0.000 A 
ATOM      7  NAO 4Z2 A 702      24.495   3.944   4.476  0.00  0.00    +0.000 NA
ATOM      8  CAP 4Z2 A 702      23.810   2.726   4.361  0.00  0.00    +0.000 A 
ATOM      9  CAQ 4Z2 A 702      24.378   1.687   3.640  0.00  0.00    +0.000 A 
ATOM     10  CAG 4Z2 A 702      25.629   1.867   3.045  0.00  0.00    +0.000 A 
BRANCH   4  14
ATOM     11  CAL 4Z2 A 702      25.339   7.504   3.574  0.00  0.00    +0.000 C 
ATOM     12  CAM 4Z2 A 702      25.841   8.551   4.565  0.00  0.00    +0.000 C 
ATOM     13  CAN 4Z2 A 702      26.563   7.433   5.304  0.00  0.00    +0.000 C 
ATOM     14  CAK 4Z2 A 702      25.600   6.458   4.635  0.00  0.00    +0.000 C 
ENDBRANCH   4  14
ENDBRANCH   1  10
BRANCH   3  15
ATOM     15  CAC 4Z2 A 702      27.830  -1.040   2.387  0.00  0.00    +0.000 C 
BRANCH  15  16
ATOM     16  CAB 4Z2 A 702      28.112  -2.038   3.530  0.00  0.00    +0.000 C 
ATOM     17  OAA 4Z2 A 702      26.887  -2.503   4.097  0.00  0.00    +0.000 OA
BRANCH  16  18
ATOM     18  CAR 4Z2 A 702      28.962  -1.374   4.632  0.00  0.00    +0.000 C 
BRANCH  18  19
ATOM     19  NAS 4Z2 A 702      28.845   0.094   4.664  0.00  0.00    +0.000 NA
ATOM     20  CAT 4Z2 A 702      30.109   0.615   5.215  0.00  0.00    +0.000 C 
ATOM     21  CAU 4Z2 A 702      30.093   2.129   5.285  0.00  0.00    +0.000 C 
ATOM     22  CAV 4Z2 A 702      28.936   2.567   5.939  0.00  0.00    +0.000 A 
ATOM     23  CBB 4Z2 A 702      28.944   3.847   6.503  0.00  0.00    +0.000 A 
ATOM     24  CBA 4Z2 A 702      27.818   4.327   7.172  0.00  0.00    +0.000 A 
ATOM     25  CAZ 4Z2 A 702      26.674   3.531   7.279  0.00  0.00    +0.000 A 
ATOM     26  CAY 4Z2 A 702      26.659   2.254   6.717  0.00  0.00    +0.000 A 
ATOM     27  CAW 4Z2 A 702      27.779   1.766   6.043  0.00  0.00    +0.000 A 
ATOM     28  CAX 4Z2 A 702      27.701   0.474   5.518  0.00  0.00    +0.000 C 
ENDBRANCH  18  19
ENDBRANCH  16  18
ENDBRANCH  15  16
ENDBRANCH   3  15
TORSDOF 6
ENDMDL
MODEL 8
REMARK VINA RESULT:      -4.8      4.758      7.376
REMARK  Name = ligand_pdbs\4Z2.pdb
REMARK  6 active torsions:
REMARK  status: ('A' for Active; 'I' for Inactive)
REMARK    1  A    between atoms: CAK_4  and  NAJ_5
REMARK    2  A    between atoms: CAG_11  and  CAE_12
REMARK    3  A    between atoms: NAD_14  and  CAC_15
REMARK    4  A    between atoms: CAC_15  and  CAB_16
REMARK    5  A    between atoms: CAB_16  and  CAR_18
REMARK    6  A    between atoms: CAR_18  and  NAS_19
REMARK                            x       y       z     vdW  Elec       q    Type
REMARK                         _______ _______ _______ _____ _____    ______ ____
ROOT
ATOM      1  CAE 4Z2 A 702      24.613   5.272   4.770  0.00  0.00    +0.000 C 
ATOM      2  OAF 4Z2 A 702      23.459   4.851   4.679  0.00  0.00    +0.000 OA
ATOM      3  NAD 4Z2 A 702      24.930   6.535   5.113  0.00  0.00    +0.000 NA
ENDROOT
BRANCH   1  10
ATOM      4  NAJ 4Z2 A 702      27.950   2.087   6.124  0.00  0.00    +0.000 NA
ATOM      5  CAI 4Z2 A 702      27.375   2.848   5.189  0.00  0.00    +0.000 A 
ATOM      6  CAH 4Z2 A 702      26.283   3.668   5.494  0.00  0.00    +0.000 A 
ATOM      7  NAO 4Z2 A 702      27.864   2.812   3.934  0.00  0.00    +0.000 NA
ATOM      8  CAP 4Z2 A 702      27.302   3.590   2.912  0.00  0.00    +0.000 A 
ATOM      9  CAQ 4Z2 A 702      26.221   4.411   3.193  0.00  0.00    +0.000 A 
ATOM     10  CAG 4Z2 A 702      25.711   4.456   4.493  0.00  0.00    +0.000 A 
BRANCH   4  14
ATOM     11  CAL 4Z2 A 702      29.288   0.217   6.965  0.00  0.00    +0.000 C 
ATOM     12  CAM 4Z2 A 702      30.763   0.392   6.614  0.00  0.00    +0.000 C 
ATOM     13  CAN 4Z2 A 702      30.375   1.633   5.822  0.00  0.00    +0.000 C 
ATOM     14  CAK 4Z2 A 702      28.958   1.072   5.762  0.00  0.00    +0.000 C 
ENDBRANCH   4  14
ENDBRANCH   1  10
BRANCH   3  15
ATOM     15  CAC 4Z2 A 702      23.923   7.576   5.388  0.00  0.00    +0.000 C 
BRANCH  15  16
ATOM     16  CAB 4Z2 A 702      24.654   8.928   5.528  0.00  0.00    +0.000 C 
ATOM     17  OAA 4Z2 A 702      25.842   8.936   4.736  0.00  0.00    +0.000 OA
BRANCH  16  18
ATOM     18  CAR 4Z2 A 702      25.025   9.194   7.001  0.00  0.00    +0.000 C 
BRANCH  18  19
ATOM     19  NAS 4Z2 A 702      24.048  10.036   7.713  0.00  0.00    +0.000 NA
ATOM     20  CAT 4Z2 A 702      24.314  11.431   7.320  0.00  0.00    +0.000 C 
ATOM     21  CAU 4Z2 A 702      23.351  12.385   7.999  0.00  0.00    +0.000 C 
ATOM     22  CAV 4Z2 A 702      23.337  12.151   9.378  0.00  0.00    +0.000 A 
ATOM     23  CBB 4Z2 A 702      22.891  13.180  10.215  0.00  0.00    +0.000 A 
ATOM     24  CBA 4Z2 A 702      22.864  12.998  11.598  0.00  0.00    +0.000 A 
ATOM     25  CAZ 4Z2 A 702      23.279  11.785  12.154  0.00  0.00    +0.000 A 
ATOM     26  CAY 4Z2 A 702      23.722  10.754  11.324  0.00  0.00    +0.000 A 
ATOM     27  CAW 4Z2 A 702      23.750  10.924   9.940  0.00  0.00    +0.000 A 
ATOM     28  CAX 4Z2 A 702      24.219   9.857   9.170  0.00  0.00    +0.000 C 
ENDBRANCH  18  19
ENDBRANCH  16  18
ENDBRANCH  15  16
ENDBRANCH   3  15
TORSDOF 6
ENDMDL
MODEL 9
REMARK VINA RESULT:      -4.7      2.244      6.517
REMARK  Name = ligand_pdbs\4Z2.pdb
REMARK  6 active torsions:
REMARK  status: ('A' for Active; 'I' for Inactive)
REMARK    1  A    between atoms: CAK_4  and  NAJ_5
REMARK    2  A    between atoms: CAG_11  and  CAE_12
REMARK    3  A    between atoms: NAD_14  and  CAC_15
REMARK    4  A    between atoms: CAC_15  and  CAB_16
REMARK    5  A    between atoms: CAB_16  and  CAR_18
REMARK    6  A    between atoms: CAR_18  and  NAS_19
REMARK                            x       y       z     vdW  Elec       q    Type
REMARK                         _______ _______ _______ _____ _____    ______ ____
ROOT
ATOM      1  CAE 4Z2 A 702      28.650   3.266   4.661  0.00  0.00    +0.000 C 
ATOM      2  OAF 4Z2 A 702      29.388   3.256   5.648  0.00  0.00    +0.000 OA
ATOM      3  NAD 4Z2 A 702      28.593   2.275   3.752  0.00  0.00    +0.000 NA
ENDROOT
BRANCH   1  10
ATOM      4  NAJ 4Z2 A 702      26.355   7.267   6.019  0.00  0.00    +0.000 NA
ATOM      5  CAI 4Z2 A 702      26.672   6.363   5.088  0.00  0.00    +0.000 A 
ATOM      6  CAH 4Z2 A 702      27.506   5.279   5.387  0.00  0.00    +0.000 A 
ATOM      7  NAO 4Z2 A 702      26.178   6.513   3.844  0.00  0.00    +0.000 NA
ATOM      8  CAP 4Z2 A 702      26.476   5.595   2.827  0.00  0.00    +0.000 A 
ATOM      9  CAQ 4Z2 A 702      27.298   4.513   3.102  0.00  0.00    +0.000 A 
ATOM     10  CAG 4Z2 A 702      27.812   4.349   4.390  0.00  0.00    +0.000 A 
BRANCH   4  14
ATOM     11  CAL 4Z2 A 702      25.255   9.265   6.907  0.00  0.00    +0.000 C 
ATOM     12  CAM 4Z2 A 702      23.877   9.461   6.281  0.00  0.00    +0.000 C 
ATOM     13  CAN 4Z2 A 702      24.175   8.273   5.377  0.00  0.00    +0.000 C 
ATOM     14  CAK 4Z2 A 702      25.655   8.514   5.657  0.00  0.00    +0.000 C 
ENDBRANCH   4  14
ENDBRANCH   1  10
BRANCH   3  15
ATOM     15  CAC 4Z2 A 702      29.438   1.070   3.814  0.00  0.00    +0.000 C 
BRANCH  15  16
ATOM     16  CAB 4Z2 A 702      28.786   0.074   4.797  0.00  0.00    +0.000 C 
ATOM     17  OAA 4Z2 A 702      29.766  -0.825   5.317  0.00  0.00    +0.000 OA
BRANCH  16  18
ATOM     18  CAR 4Z2 A 702      27.678  -0.735   4.094  0.00  0.00    +0.000 C 
BRANCH  18  19
ATOM     19  NAS 4Z2 A 702      26.348  -0.105   4.169  0.00  0.00    +0.000 NA
ATOM     20  CAT 4Z2 A 702      26.089   0.512   2.856  0.00  0.00    +0.000 C 
ATOM     21  CAU 4Z2 A 702      24.733   1.187   2.825  0.00  0.00    +0.000 C 
ATOM     22  CAV 4Z2 A 702      24.601   2.048   3.920  0.00  0.00    +0.000 A 
ATOM     23  CBB 4Z2 A 702      23.657   3.078   3.837  0.00  0.00    +0.000 A 
ATOM     24  CBA 4Z2 A 702      23.493   3.967   4.900  0.00  0.00    +0.000 A 
ATOM     25  CAZ 4Z2 A 702      24.269   3.831   6.055  0.00  0.00    +0.000 A 
ATOM     26  CAY 4Z2 A 702      25.210   2.804   6.145  0.00  0.00    +0.000 A 
ATOM     27  CAW 4Z2 A 702      25.380   1.908   5.089  0.00  0.00    +0.000 A 
ATOM     28  CAX 4Z2 A 702      26.350   0.915   5.239  0.00  0.00    +0.000 C 
ENDBRANCH  18  19
ENDBRANCH  16  18
ENDBRANCH  15  16
ENDBRANCH   3  15
TORSDOF 6
ENDMDL
