MODEL 1
REMARK VINA RESULT:      -8.5      0.000      0.000
REMARK  Name = ligand_pdbs\51K.pdb
REMARK  6 active torsions:
REMARK  status: ('A' for Active; 'I' for Inactive)
REMARK    1  A    between atoms: C23_2  and  C17_5
REMARK    2  A    between atoms: C13_8  and  C10_15
REMARK    3  A    between atoms: C15_10  and  C19_11
REMARK    4  A    between atoms: N8_17  and  C7_20
REMARK    5  A    between atoms: C7_20  and  C6_21
REMARK    6  A    between atoms: C6_21  and  C5_22
REMARK                            x       y       z     vdW  Elec       q    Type
REMARK                         _______ _______ _______ _____ _____    ______ ____
ROOT
ATOM      1  C17 51K C1101      28.265  -0.948   4.400  0.00  0.00    +0.000 A 
ATOM      2  C16 51K C1101      29.291  -0.404   5.129  0.00  0.00    +0.000 A 
ATOM      3  C18 51K C1101      27.077  -0.248   4.203  0.00  0.00    +0.000 A 
ATOM      4  C13 51K C1101      26.937   1.013   4.757  0.00  0.00    +0.000 A 
ATOM      5  C14 51K C1101      27.968   1.565   5.498  0.00  0.00    +0.000 A 
ATOM      6  C15 51K C1101      29.135   0.841   5.686  0.00  0.00    +0.000 A 
ENDROOT
BRANCH   4   7
ATOM      7  C10 51K C1101      25.710   1.808   4.562  0.00  0.00    +0.000 C 
ATOM      8  N9  51K C1101      25.485   3.015   5.100  0.00  0.00    +0.000 NA
ATOM      9  N8  51K C1101      24.220   3.351   4.655  0.00  0.00    +0.000 N 
ATOM     10  C12 51K C1101      23.715   2.389   3.887  0.00  0.00    +0.000 C 
ATOM     11  N11 51K C1101      24.646   1.424   3.819  0.00  0.00    +0.000 NA
BRANCH   9  12
ATOM     12  C7  51K C1101      23.714   4.650   5.125  0.00  0.00    +0.000 C 
BRANCH  12  13
ATOM     13  C6  51K C1101      24.194   5.798   4.248  0.00  0.00    +0.000 C 
BRANCH  13  14
ATOM     14  C5  51K C1101      25.659   6.045   4.491  0.00  0.00    +0.000 A 
ATOM     15  N4  51K C1101      26.180   6.954   5.345  0.00  0.00    +0.000 NA
ATOM     16  N3  51K C1101      27.582   6.868   5.277  0.00  0.00    +0.000 NA
ATOM     17  C2  51K C1101      27.867   5.903   4.369  0.00  0.00    +0.000 A 
ATOM     18  O1  51K C1101      26.679   5.379   3.877  0.00  0.00    +0.000 OA
ENDBRANCH  13  14
ENDBRANCH  12  13
ENDBRANCH   9  12
ENDBRANCH   4   7
BRANCH   1  20
ATOM     19  F26 51K C1101      29.778  -2.608   3.869  0.00  0.00    +0.000 F 
ATOM     20  C23 51K C1101      28.492  -2.314   3.867  0.00  0.00    +0.000 C 
ATOM     21  F24 51K C1101      27.744  -3.160   4.560  0.00  0.00    +0.000 F 
ATOM     22  F25 51K C1101      28.083  -2.326   2.622  0.00  0.00    +0.000 F 
ENDBRANCH   1  20
BRANCH   6  23
ATOM     23  C19 51K C1101      30.262   1.403   6.469  0.00  0.00    +0.000 C 
ATOM     24  F22 51K C1101      29.841   2.496   7.075  0.00  0.00    +0.000 F 
ATOM     25  F20 51K C1101      30.708   0.480   7.311  0.00  0.00    +0.000 F 
ATOM     26  F21 51K C1101      31.215   1.788   5.656  0.00  0.00    +0.000 F 
ENDBRANCH   6  23
TORSDOF 6
ENDMDL
MODEL 2
REMARK VINA RESULT:      -8.4      0.098      3.271
REMARK  Name = ligand_pdbs\51K.pdb
REMARK  6 active torsions:
REMARK  status: ('A' for Active; 'I' for Inactive)
REMARK    1  A    between atoms: C23_2  and  C17_5
REMARK    2  A    between atoms: C13_8  and  C10_15
REMARK    3  A    between atoms: C15_10  and  C19_11
REMARK    4  A    between atoms: N8_17  and  C7_20
REMARK    5  A    between atoms: C7_20  and  C6_21
REMARK    6  A    between atoms: C6_21  and  C5_22
REMARK                            x       y       z     vdW  Elec       q    Type
REMARK                         _______ _______ _______ _____ _____    ______ ____
ROOT
ATOM      1  C17 51K C1101      29.158   0.874   5.709  0.00  0.00    +0.000 A 
ATOM      2  C16 51K C1101      29.258  -0.392   5.191  0.00  0.00    +0.000 A 
ATOM      3  C18 51K C1101      28.013   1.641   5.510  0.00  0.00    +0.000 A 
ATOM      4  C13 51K C1101      26.966   1.112   4.775  0.00  0.00    +0.000 A 
ATOM      5  C14 51K C1101      27.063  -0.163   4.246  0.00  0.00    +0.000 A 
ATOM      6  C15 51K C1101      28.219  -0.900   4.452  0.00  0.00    +0.000 A 
ENDROOT
BRANCH   4   7
ATOM      7  C10 51K C1101      25.720   1.871   4.552  0.00  0.00    +0.000 C 
ATOM      8  N9  51K C1101      25.457   3.079   5.068  0.00  0.00    +0.000 NA
ATOM      9  N8  51K C1101      24.189   3.376   4.602  0.00  0.00    +0.000 N 
ATOM     10  C12 51K C1101      23.720   2.389   3.843  0.00  0.00    +0.000 C 
ATOM     11  N11 51K C1101      24.677   1.448   3.802  0.00  0.00    +0.000 NA
BRANCH   9  12
ATOM     12  C7  51K C1101      23.644   4.668   5.045  0.00  0.00    +0.000 C 
BRANCH  12  13
ATOM     13  C6  51K C1101      24.144   5.820   4.186  0.00  0.00    +0.000 C 
BRANCH  13  14
ATOM     14  C5  51K C1101      25.605   6.058   4.456  0.00  0.00    +0.000 A 
ATOM     15  N4  51K C1101      26.115   6.904   5.380  0.00  0.00    +0.000 NA
ATOM     16  N3  51K C1101      27.518   6.833   5.315  0.00  0.00    +0.000 NA
ATOM     17  C2  51K C1101      27.815   5.941   4.338  0.00  0.00    +0.000 A 
ATOM     18  O1  51K C1101      26.635   5.448   3.801  0.00  0.00    +0.000 OA
ENDBRANCH  13  14
ENDBRANCH  12  13
ENDBRANCH   9  12
ENDBRANCH   4   7
BRANCH   1  20
ATOM     19  F26 51K C1101      30.785   0.447   7.290  0.00  0.00    +0.000 F 
ATOM     20  C23 51K C1101      30.339   1.370   6.460  0.00  0.00    +0.000 C 
ATOM     21  F24 51K C1101      31.241   1.790   5.584  0.00  0.00    +0.000 F 
ATOM     22  F25 51K C1101      29.950   2.395   7.176  0.00  0.00    +0.000 F 
ENDBRANCH   1  20
BRANCH   6  23
ATOM     23  C19 51K C1101      28.355  -2.272   3.905  0.00  0.00    +0.000 C 
ATOM     24  F22 51K C1101      29.633  -2.601   3.927  0.00  0.00    +0.000 F 
ATOM     25  F20 51K C1101      27.594  -3.098   4.609  0.00  0.00    +0.000 F 
ATOM     26  F21 51K C1101      28.005  -2.281   2.643  0.00  0.00    +0.000 F 
ENDBRANCH   6  23
TORSDOF 6
ENDMDL
MODEL 3
REMARK VINA RESULT:      -8.1      4.430      7.720
REMARK  Name = ligand_pdbs\51K.pdb
REMARK  6 active torsions:
REMARK  status: ('A' for Active; 'I' for Inactive)
REMARK    1  A    between atoms: C23_2  and  C17_5
REMARK    2  A    between atoms: C13_8  and  C10_15
REMARK    3  A    between atoms: C15_10  and  C19_11
REMARK    4  A    between atoms: N8_17  and  C7_20
REMARK    5  A    between atoms: C7_20  and  C6_21
REMARK    6  A    between atoms: C6_21  and  C5_22
REMARK                            x       y       z     vdW  Elec       q    Type
REMARK                         _______ _______ _______ _____ _____    ______ ____
ROOT
ATOM      1  C17 51K C1101      26.265   6.044   4.829  0.00  0.00    +0.000 A 
ATOM      2  C16 51K C1101      24.977   5.585   4.726  0.00  0.00    +0.000 A 
ATOM      3  C18 51K C1101      27.344   5.165   4.771  0.00  0.00    +0.000 A 
ATOM      4  C13 51K C1101      27.104   3.811   4.608  0.00  0.00    +0.000 A 
ATOM      5  C14 51K C1101      25.806   3.343   4.509  0.00  0.00    +0.000 A 
ATOM      6  C15 51K C1101      24.751   4.239   4.580  0.00  0.00    +0.000 A 
ENDROOT
BRANCH   4   7
ATOM      7  C10 51K C1101      28.209   2.838   4.518  0.00  0.00    +0.000 C 
ATOM      8  N9  51K C1101      28.355   1.932   3.541  0.00  0.00    +0.000 NA
ATOM      9  N8  51K C1101      29.507   1.249   3.884  0.00  0.00    +0.000 N 
ATOM     10  C12 51K C1101      30.025   1.728   5.012  0.00  0.00    +0.000 C 
ATOM     11  N11 51K C1101      29.221   2.727   5.410  0.00  0.00    +0.000 NA
BRANCH   9  12
ATOM     12  C7  51K C1101      29.891   0.166   2.966  0.00  0.00    +0.000 C 
BRANCH  12  13
ATOM     13  C6  51K C1101      29.988  -1.176   3.678  0.00  0.00    +0.000 C 
BRANCH  13  14
ATOM     14  C5  51K C1101      28.626  -1.591   4.165  0.00  0.00    +0.000 A 
ATOM     15  N4  51K C1101      27.748  -2.372   3.497  0.00  0.00    +0.000 NA
ATOM     16  N3  51K C1101      26.598  -2.522   4.292  0.00  0.00    +0.000 NA
ATOM     17  C2  51K C1101      26.817  -1.813   5.427  0.00  0.00    +0.000 A 
ATOM     18  O1  51K C1101      28.077  -1.234   5.362  0.00  0.00    +0.000 OA
ENDBRANCH  13  14
ENDBRANCH  12  13
ENDBRANCH   9  12
ENDBRANCH   4   7
BRANCH   1  20
ATOM     19  F26 51K C1101      25.731   7.913   6.072  0.00  0.00    +0.000 F 
ATOM     20  C23 51K C1101      26.427   7.505   5.028  0.00  0.00    +0.000 C 
ATOM     21  F24 51K C1101      27.723   7.773   5.106  0.00  0.00    +0.000 F 
ATOM     22  F25 51K C1101      25.945   8.105   3.969  0.00  0.00    +0.000 F 
ENDBRANCH   1  20
BRANCH   6  23
ATOM     23  C19 51K C1101      23.347   3.774   4.470  0.00  0.00    +0.000 C 
ATOM     24  F22 51K C1101      23.136   2.868   5.406  0.00  0.00    +0.000 F 
ATOM     25  F20 51K C1101      22.534   4.818   4.566  0.00  0.00    +0.000 F 
ATOM     26  F21 51K C1101      23.175   3.156   3.329  0.00  0.00    +0.000 F 
ENDBRANCH   6  23
TORSDOF 6
ENDMDL
MODEL 4
REMARK VINA RESULT:      -8.1      1.699      2.602
REMARK  Name = ligand_pdbs\51K.pdb
REMARK  6 active torsions:
REMARK  status: ('A' for Active; 'I' for Inactive)
REMARK    1  A    between atoms: C23_2  and  C17_5
REMARK    2  A    between atoms: C13_8  and  C10_15
REMARK    3  A    between atoms: C15_10  and  C19_11
REMARK    4  A    between atoms: N8_17  and  C7_20
REMARK    5  A    between atoms: C7_20  and  C6_21
REMARK    6  A    between atoms: C6_21  and  C5_22
REMARK                            x       y       z     vdW  Elec       q    Type
REMARK                         _______ _______ _______ _____ _____    ______ ____
ROOT
ATOM      1  C17 51K C1101      28.265  -0.208   4.029  0.00  0.00    +0.000 A 
ATOM      2  C16 51K C1101      29.134  -0.428   5.067  0.00  0.00    +0.000 A 
ATOM      3  C18 51K C1101      27.836   1.079   3.716  0.00  0.00    +0.000 A 
ATOM      4  C13 51K C1101      28.297   2.146   4.468  0.00  0.00    +0.000 A 
ATOM      5  C14 51K C1101      29.170   1.929   5.519  0.00  0.00    +0.000 A 
ATOM      6  C15 51K C1101      29.573   0.636   5.814  0.00  0.00    +0.000 A 
ENDROOT
BRANCH   4   7
ATOM      7  C10 51K C1101      27.892   3.533   4.167  0.00  0.00    +0.000 C 
ATOM      8  N9  51K C1101      27.945   4.552   5.035  0.00  0.00    +0.000 NA
ATOM      9  N8  51K C1101      27.461   5.631   4.318  0.00  0.00    +0.000 N 
ATOM     10  C12 51K C1101      27.135   5.270   3.079  0.00  0.00    +0.000 C 
ATOM     11  N11 51K C1101      27.409   3.959   2.977  0.00  0.00    +0.000 NA
BRANCH   9  12
ATOM     12  C7  51K C1101      27.397   6.899   5.059  0.00  0.00    +0.000 C 
BRANCH  12  13
ATOM     13  C6  51K C1101      25.962   7.352   5.289  0.00  0.00    +0.000 C 
BRANCH  13  14
ATOM     14  C5  51K C1101      25.030   6.180   5.140  0.00  0.00    +0.000 A 
ATOM     15  N4  51K C1101      24.056   6.052   4.212  0.00  0.00    +0.000 NA
ATOM     16  N3  51K C1101      23.415   4.817   4.412  0.00  0.00    +0.000 NA
ATOM     17  C2  51K C1101      24.026   4.233   5.472  0.00  0.00    +0.000 A 
ATOM     18  O1  51K C1101      25.035   5.068   5.930  0.00  0.00    +0.000 OA
ENDBRANCH  13  14
ENDBRANCH  12  13
ENDBRANCH   9  12
ENDBRANCH   4   7
BRANCH   1  20
ATOM     19  F26 51K C1101      28.592  -2.440   3.540  0.00  0.00    +0.000 F 
ATOM     20  C23 51K C1101      27.802  -1.412   3.295  0.00  0.00    +0.000 C 
ATOM     21  F24 51K C1101      26.530  -1.623   3.604  0.00  0.00    +0.000 F 
ATOM     22  F25 51K C1101      27.878  -1.148   2.015  0.00  0.00    +0.000 F 
ENDBRANCH   1  20
BRANCH   6  23
ATOM     23  C19 51K C1101      30.514   0.367   6.929  0.00  0.00    +0.000 C 
ATOM     24  F22 51K C1101      30.832   1.518   7.490  0.00  0.00    +0.000 F 
ATOM     25  F20 51K C1101      29.952  -0.486   7.775  0.00  0.00    +0.000 F 
ATOM     26  F21 51K C1101      31.632  -0.122   6.454  0.00  0.00    +0.000 F 
ENDBRANCH   6  23
TORSDOF 6
ENDMDL
MODEL 5
REMARK VINA RESULT:      -8.0      4.485      7.098
REMARK  Name = ligand_pdbs\51K.pdb
REMARK  6 active torsions:
REMARK  status: ('A' for Active; 'I' for Inactive)
REMARK    1  A    between atoms: C23_2  and  C17_5
REMARK    2  A    between atoms: C13_8  and  C10_15
REMARK    3  A    between atoms: C15_10  and  C19_11
REMARK    4  A    between atoms: N8_17  and  C7_20
REMARK    5  A    between atoms: C7_20  and  C6_21
REMARK    6  A    between atoms: C6_21  and  C5_22
REMARK                            x       y       z     vdW  Elec       q    Type
REMARK                         _______ _______ _______ _____ _____    ______ ____
ROOT
ATOM      1  C17 51K C1101      24.688   4.215   4.546  0.00  0.00    +0.000 A 
ATOM      2  C16 51K C1101      24.955   5.546   4.740  0.00  0.00    +0.000 A 
ATOM      3  C18 51K C1101      25.721   3.285   4.447  0.00  0.00    +0.000 A 
ATOM      4  C13 51K C1101      27.032   3.720   4.546  0.00  0.00    +0.000 A 
ATOM      5  C14 51K C1101      27.306   5.062   4.737  0.00  0.00    +0.000 A 
ATOM      6  C15 51K C1101      26.259   5.966   4.822  0.00  0.00    +0.000 A 
ENDROOT
BRANCH   4   7
ATOM      7  C10 51K C1101      28.163   2.776   4.471  0.00  0.00    +0.000 C 
ATOM      8  N9  51K C1101      28.319   1.839   3.525  0.00  0.00    +0.000 NA
ATOM      9  N8  51K C1101      29.496   1.203   3.871  0.00  0.00    +0.000 N 
ATOM     10  C12 51K C1101      30.018   1.736   4.973  0.00  0.00    +0.000 C 
ATOM     11  N11 51K C1101      29.192   2.726   5.349  0.00  0.00    +0.000 NA
BRANCH   9  12
ATOM     12  C7  51K C1101      29.896   0.098   2.986  0.00  0.00    +0.000 C 
BRANCH  12  13
ATOM     13  C6  51K C1101      29.971  -1.228   3.729  0.00  0.00    +0.000 C 
BRANCH  13  14
ATOM     14  C5  51K C1101      28.599  -1.620   4.208  0.00  0.00    +0.000 A 
ATOM     15  N4  51K C1101      28.021  -1.232   5.367  0.00  0.00    +0.000 NA
ATOM     16  N3  51K C1101      26.744  -1.814   5.438  0.00  0.00    +0.000 NA
ATOM     17  C2  51K C1101      26.590  -2.549   4.309  0.00  0.00    +0.000 A 
ATOM     18  O1  51K C1101      27.735  -2.432   3.533  0.00  0.00    +0.000 OA
ENDBRANCH  13  14
ENDBRANCH  12  13
ENDBRANCH   9  12
ENDBRANCH   4   7
BRANCH   1  20
ATOM     19  F26 51K C1101      22.484   4.893   4.629  0.00  0.00    +0.000 F 
ATOM     20  C23 51K C1101      23.257   3.843   4.424  0.00  0.00    +0.000 C 
ATOM     21  F24 51K C1101      23.077   3.262   3.247  0.00  0.00    +0.000 F 
ATOM     22  F25 51K C1101      22.994   2.968   5.362  0.00  0.00    +0.000 F 
ENDBRANCH   1  20
BRANCH   6  23
ATOM     23  C19 51K C1101      26.515   7.412   5.034  0.00  0.00    +0.000 C 
ATOM     24  F22 51K C1101      25.789   7.815   6.059  0.00  0.00    +0.000 F 
ATOM     25  F20 51K C1101      27.816   7.601   5.212  0.00  0.00    +0.000 F 
ATOM     26  F21 51K C1101      26.085   8.092   4.001  0.00  0.00    +0.000 F 
ENDBRANCH   6  23
TORSDOF 6
ENDMDL
MODEL 6
REMARK VINA RESULT:      -7.9      1.652      4.025
REMARK  Name = ligand_pdbs\51K.pdb
REMARK  6 active torsions:
REMARK  status: ('A' for Active; 'I' for Inactive)
REMARK    1  A    between atoms: C23_2  and  C17_5
REMARK    2  A    between atoms: C13_8  and  C10_15
REMARK    3  A    between atoms: C15_10  and  C19_11
REMARK    4  A    between atoms: N8_17  and  C7_20
REMARK    5  A    between atoms: C7_20  and  C6_21
REMARK    6  A    between atoms: C6_21  and  C5_22
REMARK                            x       y       z     vdW  Elec       q    Type
REMARK                         _______ _______ _______ _____ _____    ______ ____
ROOT
ATOM      1  C17 51K C1101      29.640   0.645   5.802  0.00  0.00    +0.000 A 
ATOM      2  C16 51K C1101      29.210  -0.392   5.015  0.00  0.00    +0.000 A 
ATOM      3  C18 51K C1101      29.244   1.954   5.539  0.00  0.00    +0.000 A 
ATOM      4  C13 51K C1101      28.406   2.204   4.465  0.00  0.00    +0.000 A 
ATOM      5  C14 51K C1101      27.974   1.161   3.664  0.00  0.00    +0.000 A 
ATOM      6  C15 51K C1101      28.392  -0.131   3.944  0.00  0.00    +0.000 A 
ENDROOT
BRANCH   4   7
ATOM      7  C10 51K C1101      27.938   3.568   4.154  0.00  0.00    +0.000 C 
ATOM      8  N9  51K C1101      27.919   4.588   5.023  0.00  0.00    +0.000 NA
ATOM      9  N8  51K C1101      27.395   5.641   4.295  0.00  0.00    +0.000 N 
ATOM     10  C12 51K C1101      27.116   5.264   3.050  0.00  0.00    +0.000 C 
ATOM     11  N11 51K C1101      27.460   3.969   2.954  0.00  0.00    +0.000 NA
BRANCH   9  12
ATOM     12  C7  51K C1101      27.249   6.904   5.034  0.00  0.00    +0.000 C 
BRANCH  12  13
ATOM     13  C6  51K C1101      25.790   7.314   5.177  0.00  0.00    +0.000 C 
BRANCH  13  14
ATOM     14  C5  51K C1101      24.912   6.094   5.110  0.00  0.00    +0.000 A 
ATOM     15  N4  51K C1101      24.960   5.033   5.947  0.00  0.00    +0.000 NA
ATOM     16  N3  51K C1101      23.978   4.111   5.546  0.00  0.00    +0.000 NA
ATOM     17  C2  51K C1101      23.364   4.646   4.463  0.00  0.00    +0.000 A 
ATOM     18  O1  51K C1101      23.932   5.882   4.185  0.00  0.00    +0.000 OA
ENDBRANCH  13  14
ENDBRANCH  12  13
ENDBRANCH   9  12
ENDBRANCH   4   7
BRANCH   1  20
ATOM     19  F26 51K C1101      29.953  -0.502   7.779  0.00  0.00    +0.000 F 
ATOM     20  C23 51K C1101      30.556   0.289   6.913  0.00  0.00    +0.000 C 
ATOM     21  F24 51K C1101      31.662  -0.223   6.393  0.00  0.00    +0.000 F 
ATOM     22  F25 51K C1101      30.869   1.397   7.538  0.00  0.00    +0.000 F 
ENDBRANCH   1  20
BRANCH   6  23
ATOM     23  C19 51K C1101      27.943  -1.273   3.112  0.00  0.00    +0.000 C 
ATOM     24  F22 51K C1101      27.712  -0.831   1.891  0.00  0.00    +0.000 F 
ATOM     25  F20 51K C1101      28.863  -2.228   3.153  0.00  0.00    +0.000 F 
ATOM     26  F21 51K C1101      26.794  -1.718   3.556  0.00  0.00    +0.000 F 
ENDBRANCH   6  23
TORSDOF 6
ENDMDL
MODEL 7
REMARK VINA RESULT:      -7.1      1.331      1.986
REMARK  Name = ligand_pdbs\51K.pdb
REMARK  6 active torsions:
REMARK  status: ('A' for Active; 'I' for Inactive)
REMARK    1  A    between atoms: C23_2  and  C17_5
REMARK    2  A    between atoms: C13_8  and  C10_15
REMARK    3  A    between atoms: C15_10  and  C19_11
REMARK    4  A    between atoms: N8_17  and  C7_20
REMARK    5  A    between atoms: C7_20  and  C6_21
REMARK    6  A    between atoms: C6_21  and  C5_22
REMARK                            x       y       z     vdW  Elec       q    Type
REMARK                         _______ _______ _______ _____ _____    ______ ____
ROOT
ATOM      1  C17 51K C1101      28.301   0.053   3.915  0.00  0.00    +0.000 A 
ATOM      2  C16 51K C1101      29.331  -0.107   4.806  0.00  0.00    +0.000 A 
ATOM      3  C18 51K C1101      27.254   0.932   4.182  0.00  0.00    +0.000 A 
ATOM      4  C13 51K C1101      27.259   1.648   5.366  0.00  0.00    +0.000 A 
ATOM      5  C14 51K C1101      28.294   1.486   6.272  0.00  0.00    +0.000 A 
ATOM      6  C15 51K C1101      29.318   0.597   5.984  0.00  0.00    +0.000 A 
ENDROOT
BRANCH   4   7
ATOM      7  C10 51K C1101      26.188   2.609   5.690  0.00  0.00    +0.000 C 
ATOM      8  N9  51K C1101      25.304   3.098   4.809  0.00  0.00    +0.000 NA
ATOM      9  N8  51K C1101      24.520   3.955   5.558  0.00  0.00    +0.000 N 
ATOM     10  C12 51K C1101      24.917   3.975   6.827  0.00  0.00    +0.000 C 
ATOM     11  N11 51K C1101      25.956   3.129   6.918  0.00  0.00    +0.000 NA
BRANCH   9  12
ATOM     12  C7  51K C1101      23.460   4.649   4.811  0.00  0.00    +0.000 C 
BRANCH  12  13
ATOM     13  C6  51K C1101      24.028   5.649   3.814  0.00  0.00    +0.000 C 
BRANCH  13  14
ATOM     14  C5  51K C1101      25.117   6.456   4.469  0.00  0.00    +0.000 A 
ATOM     15  N4  51K C1101      24.938   7.546   5.249  0.00  0.00    +0.000 NA
ATOM     16  N3  51K C1101      26.201   8.004   5.662  0.00  0.00    +0.000 NA
ATOM     17  C2  51K C1101      27.115   7.171   5.108  0.00  0.00    +0.000 A 
ATOM     18  O1  51K C1101      26.453   6.200   4.368  0.00  0.00    +0.000 OA
ENDBRANCH  13  14
ENDBRANCH  12  13
ENDBRANCH   9  12
ENDBRANCH   4   7
BRANCH   1  20
ATOM     19  F26 51K C1101      27.407  -0.432   1.843  0.00  0.00    +0.000 F 
ATOM     20  C23 51K C1101      28.364  -0.774   2.685  0.00  0.00    +0.000 C 
ATOM     21  F24 51K C1101      29.586  -0.678   2.181  0.00  0.00    +0.000 F 
ATOM     22  F25 51K C1101      28.158  -2.020   3.034  0.00  0.00    +0.000 F 
ENDBRANCH   1  20
BRANCH   6  23
ATOM     23  C19 51K C1101      30.446   0.404   6.927  0.00  0.00    +0.000 C 
ATOM     24  F22 51K C1101      31.419  -0.215   6.287  0.00  0.00    +0.000 F 
ATOM     25  F20 51K C1101      30.811   1.582   7.415  0.00  0.00    +0.000 F 
ATOM     26  F21 51K C1101      30.081  -0.404   7.891  0.00  0.00    +0.000 F 
ENDBRANCH   6  23
TORSDOF 6
ENDMDL
