MODEL 1
REMARK VINA RESULT:      -7.8      0.000      0.000
REMARK  Name = ligand_pdbs\51Y.pdb
REMARK  3 active torsions:
REMARK  status: ('A' for Active; 'I' for Inactive)
REMARK    1  A    between atoms: C6_2  and  N8_8
REMARK    2  A    between atoms: C2_7  and  C17_17
REMARK    3  A    between atoms: N8_8  and  C9_9
REMARK                            x       y       z     vdW  Elec       q    Type
REMARK                         _______ _______ _______ _____ _____    ______ ____
ROOT
ATOM      1  C7  51Y A1001      27.813   3.705   3.686  0.00  0.00    +0.000 A 
ATOM      2  C6  51Y A1001      26.801   2.763   3.691  0.00  0.00    +0.000 A 
ATOM      3  C1  51Y A1001      27.561   5.024   3.991  0.00  0.00    +0.000 A 
ATOM      4  C5  51Y A1001      24.416   2.150   4.015  0.00  0.00    +0.000 C 
ATOM      5  C4  51Y A1001      25.519   3.157   4.011  0.00  0.00    +0.000 A 
ATOM      6  C3  51Y A1001      25.269   4.475   4.315  0.00  0.00    +0.000 A 
ATOM      7  C2  51Y A1001      26.279   5.412   4.308  0.00  0.00    +0.000 A 
ATOM      8 CL1  51Y A1001      23.666   4.968   4.709  0.00  0.00    +0.000 Cl
ENDROOT
BRANCH   7   9
ATOM      9  C17 51Y A1001      25.993   6.772   4.631  0.00  0.00    +0.000 C 
ATOM     10  N18 51Y A1001      25.738   7.867   4.940  0.00  0.00    +0.000 NA
ENDBRANCH   7   9
BRANCH   2  11
ATOM     11  N8  51Y A1001      26.992   1.404   3.397  0.00  0.00    +0.000 NA
BRANCH  11  12
ATOM     12  C9  51Y A1001      28.176   0.803   3.964  0.00  0.00    +0.000 C 
ATOM     13  C10 51Y A1001      27.865  -0.320   4.933  0.00  0.00    +0.000 C 
ATOM     14  O11 51Y A1001      28.435   0.050   6.169  0.00  0.00    +0.000 OA
ATOM     15  C12 51Y A1001      26.394  -0.625   5.128  0.00  0.00    +0.000 C 
ATOM     16  C13 51Y A1001      28.571  -1.559   4.457  0.00  0.00    +0.000 C 
ATOM     17  C14 51Y A1001      29.457  -1.150   3.312  0.00  0.00    +0.000 C 
ATOM     18  C15 51Y A1001      28.956   0.186   2.824  0.00  0.00    +0.000 C 
ENDBRANCH  11  12
ENDBRANCH   2  11
TORSDOF 3
ENDMDL
MODEL 2
REMARK VINA RESULT:      -7.6      3.007      6.192
REMARK  Name = ligand_pdbs\51Y.pdb
REMARK  3 active torsions:
REMARK  status: ('A' for Active; 'I' for Inactive)
REMARK    1  A    between atoms: C6_2  and  N8_8
REMARK    2  A    between atoms: C2_7  and  C17_17
REMARK    3  A    between atoms: N8_8  and  C9_9
REMARK                            x       y       z     vdW  Elec       q    Type
REMARK                         _______ _______ _______ _____ _____    ______ ____
ROOT
ATOM      1  C7  51Y A1001      27.371   1.852   3.266  0.00  0.00    +0.000 A 
ATOM      2  C6  51Y A1001      27.776   2.619   4.342  0.00  0.00    +0.000 A 
ATOM      3  C1  51Y A1001      27.845   0.573   3.083  0.00  0.00    +0.000 A 
ATOM      4  C5  51Y A1001      29.119   2.905   6.413  0.00  0.00    +0.000 C 
ATOM      5  C4  51Y A1001      28.668   2.086   5.248  0.00  0.00    +0.000 A 
ATOM      6  C3  51Y A1001      29.142   0.807   5.063  0.00  0.00    +0.000 A 
ATOM      7  C2  51Y A1001      28.737   0.046   3.988  0.00  0.00    +0.000 A 
ATOM      8 CL1  51Y A1001      30.263   0.143   6.191  0.00  0.00    +0.000 Cl
ENDROOT
BRANCH   7   9
ATOM      9  C17 51Y A1001      29.241  -1.279   3.823  0.00  0.00    +0.000 C 
ATOM     10  N18 51Y A1001      29.641  -2.359   3.638  0.00  0.00    +0.000 NA
ENDBRANCH   7   9
BRANCH   2  11
ATOM     11  N8  51Y A1001      27.326   3.925   4.590  0.00  0.00    +0.000 NA
BRANCH  11  12
ATOM     12  C9  51Y A1001      26.082   4.288   3.954  0.00  0.00    +0.000 C 
ATOM     13  C10 51Y A1001      24.877   4.095   4.855  0.00  0.00    +0.000 C 
ATOM     14  O11 51Y A1001      24.025   3.187   4.192  0.00  0.00    +0.000 OA
ATOM     15  C12 51Y A1001      25.179   3.577   6.246  0.00  0.00    +0.000 C 
ATOM     16  C13 51Y A1001      24.153   5.409   4.958  0.00  0.00    +0.000 C 
ATOM     17  C14 51Y A1001      24.805   6.349   3.979  0.00  0.00    +0.000 C 
ATOM     18  C15 51Y A1001      26.153   5.765   3.639  0.00  0.00    +0.000 C 
ENDBRANCH  11  12
ENDBRANCH   2  11
TORSDOF 3
ENDMDL
MODEL 3
REMARK VINA RESULT:      -7.5      1.929      2.800
REMARK  Name = ligand_pdbs\51Y.pdb
REMARK  3 active torsions:
REMARK  status: ('A' for Active; 'I' for Inactive)
REMARK    1  A    between atoms: C6_2  and  N8_8
REMARK    2  A    between atoms: C2_7  and  C17_17
REMARK    3  A    between atoms: N8_8  and  C9_9
REMARK                            x       y       z     vdW  Elec       q    Type
REMARK                         _______ _______ _______ _____ _____    ______ ____
ROOT
ATOM      1  C7  51Y A1001      25.276   2.139   4.889  0.00  0.00    +0.000 A 
ATOM      2  C6  51Y A1001      26.625   2.063   5.181  0.00  0.00    +0.000 A 
ATOM      3  C1  51Y A1001      24.654   3.352   4.702  0.00  0.00    +0.000 A 
ATOM      4  C5  51Y A1001      28.814   3.159   5.602  0.00  0.00    +0.000 C 
ATOM      5  C4  51Y A1001      27.356   3.227   5.282  0.00  0.00    +0.000 A 
ATOM      6  C3  51Y A1001      26.734   4.440   5.095  0.00  0.00    +0.000 A 
ATOM      7  C2  51Y A1001      25.388   4.512   4.806  0.00  0.00    +0.000 A 
ATOM      8 CL1  51Y A1001      27.646   5.895   5.228  0.00  0.00    +0.000 Cl
ENDROOT
BRANCH   7   9
ATOM      9  C17 51Y A1001      24.768   5.783   4.613  0.00  0.00    +0.000 C 
ATOM     10  N18 51Y A1001      24.303   6.836   4.430  0.00  0.00    +0.000 NA
ENDBRANCH   7   9
BRANCH   2  11
ATOM     11  N8  51Y A1001      27.320   0.859   5.375  0.00  0.00    +0.000 NA
BRANCH  11  12
ATOM     12  C9  51Y A1001      26.930  -0.233   4.516  0.00  0.00    +0.000 C 
ATOM     13  C10 51Y A1001      27.969  -0.557   3.460  0.00  0.00    +0.000 C 
ATOM     14  O11 51Y A1001      27.331  -0.402   2.212  0.00  0.00    +0.000 OA
ATOM     15  C12 51Y A1001      29.221   0.295   3.494  0.00  0.00    +0.000 C 
ATOM     16  C13 51Y A1001      28.347  -2.005   3.602  0.00  0.00    +0.000 C 
ATOM     17  C14 51Y A1001      27.411  -2.608   4.615  0.00  0.00    +0.000 C 
ATOM     18  C15 51Y A1001      26.800  -1.464   5.385  0.00  0.00    +0.000 C 
ENDBRANCH  11  12
ENDBRANCH   2  11
TORSDOF 3
ENDMDL
MODEL 4
REMARK VINA RESULT:      -7.5      1.275      1.484
REMARK  Name = ligand_pdbs\51Y.pdb
REMARK  3 active torsions:
REMARK  status: ('A' for Active; 'I' for Inactive)
REMARK    1  A    between atoms: C6_2  and  N8_8
REMARK    2  A    between atoms: C2_7  and  C17_17
REMARK    3  A    between atoms: N8_8  and  C9_9
REMARK                            x       y       z     vdW  Elec       q    Type
REMARK                         _______ _______ _______ _____ _____    ______ ____
ROOT
ATOM      1  C7  51Y A1001      27.805   3.658   5.136  0.00  0.00    +0.000 A 
ATOM      2  C6  51Y A1001      26.747   2.780   4.992  0.00  0.00    +0.000 A 
ATOM      3  C1  51Y A1001      27.614   5.020   5.072  0.00  0.00    +0.000 A 
ATOM      4  C5  51Y A1001      24.330   2.344   4.622  0.00  0.00    +0.000 C 
ATOM      5  C4  51Y A1001      25.481   3.282   4.784  0.00  0.00    +0.000 A 
ATOM      6  C3  51Y A1001      25.292   4.644   4.720  0.00  0.00    +0.000 A 
ATOM      7  C2  51Y A1001      26.348   5.517   4.862  0.00  0.00    +0.000 A 
ATOM      8 CL1  51Y A1001      23.710   5.272   4.453  0.00  0.00    +0.000 Cl
ENDROOT
BRANCH   7   9
ATOM      9  C17 51Y A1001      26.124   6.925   4.795  0.00  0.00    +0.000 C 
ATOM     10  N18 51Y A1001      25.895   8.067   4.763  0.00  0.00    +0.000 NA
ENDBRANCH   7   9
BRANCH   2  11
ATOM     11  N8  51Y A1001      26.873   1.383   5.055  0.00  0.00    +0.000 NA
BRANCH  11  12
ATOM     12  C9  51Y A1001      27.606   0.773   3.971  0.00  0.00    +0.000 C 
ATOM     13  C10 51Y A1001      28.940   0.199   4.408  0.00  0.00    +0.000 C 
ATOM     14  O11 51Y A1001      29.927   0.855   3.643  0.00  0.00    +0.000 OA
ATOM     15  C12 51Y A1001      29.264   0.348   5.880  0.00  0.00    +0.000 C 
ATOM     16  C13 51Y A1001      28.968  -1.257   4.037  0.00  0.00    +0.000 C 
ATOM     17  C14 51Y A1001      27.738  -1.526   3.213  0.00  0.00    +0.000 C 
ATOM     18  C15 51Y A1001      26.781  -0.390   3.468  0.00  0.00    +0.000 C 
ENDBRANCH  11  12
ENDBRANCH   2  11
TORSDOF 3
ENDMDL
MODEL 5
REMARK VINA RESULT:      -7.3      2.815      6.097
REMARK  Name = ligand_pdbs\51Y.pdb
REMARK  3 active torsions:
REMARK  status: ('A' for Active; 'I' for Inactive)
REMARK    1  A    between atoms: C6_2  and  N8_8
REMARK    2  A    between atoms: C2_7  and  C17_17
REMARK    3  A    between atoms: N8_8  and  C9_9
REMARK                            x       y       z     vdW  Elec       q    Type
REMARK                         _______ _______ _______ _____ _____    ______ ____
ROOT
ATOM      1  C7  51Y A1001      28.367   2.046   3.515  0.00  0.00    +0.000 A 
ATOM      2  C6  51Y A1001      27.009   1.824   3.384  0.00  0.00    +0.000 A 
ATOM      3  C1  51Y A1001      29.252   0.999   3.641  0.00  0.00    +0.000 A 
ATOM      4  C5  51Y A1001      25.072   0.275   3.242  0.00  0.00    +0.000 C 
ATOM      5  C4  51Y A1001      26.538   0.528   3.377  0.00  0.00    +0.000 A 
ATOM      6  C3  51Y A1001      27.423  -0.518   3.504  0.00  0.00    +0.000 A 
ATOM      7  C2  51Y A1001      28.776  -0.293   3.636  0.00  0.00    +0.000 A 
ATOM      8 CL1  51Y A1001      26.834  -2.137   3.503  0.00  0.00    +0.000 Cl
ENDROOT
BRANCH   7   9
ATOM      9  C17 51Y A1001      29.673  -1.396   3.762  0.00  0.00    +0.000 C 
ATOM     10  N18 51Y A1001      30.412  -2.297   3.813  0.00  0.00    +0.000 NA
ENDBRANCH   7   9
BRANCH   2  11
ATOM     11  N8  51Y A1001      26.056   2.845   3.244  0.00  0.00    +0.000 NA
BRANCH  11  12
ATOM     12  C9  51Y A1001      25.707   3.544   4.458  0.00  0.00    +0.000 C 
ATOM     13  C10 51Y A1001      26.173   4.986   4.467  0.00  0.00    +0.000 C 
ATOM     14  O11 51Y A1001      27.026   5.123   5.583  0.00  0.00    +0.000 OA
ATOM     15  C12 51Y A1001      26.900   5.444   3.220  0.00  0.00    +0.000 C 
ATOM     16  C13 51Y A1001      24.975   5.865   4.697  0.00  0.00    +0.000 C 
ATOM     17  C14 51Y A1001      23.817   4.958   5.012  0.00  0.00    +0.000 C 
ATOM     18  C15 51Y A1001      24.197   3.578   4.538  0.00  0.00    +0.000 C 
ENDBRANCH  11  12
ENDBRANCH   2  11
TORSDOF 3
ENDMDL
MODEL 6
REMARK VINA RESULT:      -6.9      3.150      6.157
REMARK  Name = ligand_pdbs\51Y.pdb
REMARK  3 active torsions:
REMARK  status: ('A' for Active; 'I' for Inactive)
REMARK    1  A    between atoms: C6_2  and  N8_8
REMARK    2  A    between atoms: C2_7  and  C17_17
REMARK    3  A    between atoms: N8_8  and  C9_9
REMARK                            x       y       z     vdW  Elec       q    Type
REMARK                         _______ _______ _______ _____ _____    ______ ____
ROOT
ATOM      1  C7  51Y A1001      26.944   2.718   3.360  0.00  0.00    +0.000 A 
ATOM      2  C6  51Y A1001      27.696   3.223   4.405  0.00  0.00    +0.000 A 
ATOM      3  C1  51Y A1001      27.012   1.389   3.010  0.00  0.00    +0.000 A 
ATOM      4  C5  51Y A1001      29.347   2.908   6.234  0.00  0.00    +0.000 C 
ATOM      5  C4  51Y A1001      28.525   2.374   5.106  0.00  0.00    +0.000 A 
ATOM      6  C3  51Y A1001      28.593   1.046   4.754  0.00  0.00    +0.000 A 
ATOM      7  C2  51Y A1001      27.843   0.546   3.712  0.00  0.00    +0.000 A 
ATOM      8 CL1  51Y A1001      29.635  -0.014   5.627  0.00  0.00    +0.000 Cl
ENDROOT
BRANCH   7   9
ATOM      9  C17 51Y A1001      27.930  -0.837   3.370  0.00  0.00    +0.000 C 
ATOM     10  N18 51Y A1001      28.039  -1.971   3.125  0.00  0.00    +0.000 NA
ENDBRANCH   7   9
BRANCH   2  11
ATOM     11  N8  51Y A1001      27.667   4.565   4.818  0.00  0.00    +0.000 NA
BRANCH  11  12
ATOM     12  C9  51Y A1001      26.497   4.963   5.565  0.00  0.00    +0.000 C 
ATOM     13  C10 51Y A1001      25.579   5.882   4.783  0.00  0.00    +0.000 C 
ATOM     14  O11 51Y A1001      25.477   7.074   5.530  0.00  0.00    +0.000 OA
ATOM     15  C12 51Y A1001      26.028   6.208   3.374  0.00  0.00    +0.000 C 
ATOM     16  C13 51Y A1001      24.214   5.253   4.738  0.00  0.00    +0.000 C 
ATOM     17  C14 51Y A1001      24.252   4.051   5.643  0.00  0.00    +0.000 C 
ATOM     18  C15 51Y A1001      25.705   3.709   5.860  0.00  0.00    +0.000 C 
ENDBRANCH  11  12
ENDBRANCH   2  11
TORSDOF 3
ENDMDL
MODEL 7
REMARK VINA RESULT:      -6.8      3.101      6.271
REMARK  Name = ligand_pdbs\51Y.pdb
REMARK  3 active torsions:
REMARK  status: ('A' for Active; 'I' for Inactive)
REMARK    1  A    between atoms: C6_2  and  N8_8
REMARK    2  A    between atoms: C2_7  and  C17_17
REMARK    3  A    between atoms: N8_8  and  C9_9
REMARK                            x       y       z     vdW  Elec       q    Type
REMARK                         _______ _______ _______ _____ _____    ______ ____
ROOT
ATOM      1  C7  51Y A1001      26.875   2.003   3.190  0.00  0.00    +0.000 A 
ATOM      2  C6  51Y A1001      26.796   2.592   4.438  0.00  0.00    +0.000 A 
ATOM      3  C1  51Y A1001      27.648   0.884   2.978  0.00  0.00    +0.000 A 
ATOM      4  C5  51Y A1001      27.431   2.673   6.839  0.00  0.00    +0.000 C 
ATOM      5  C4  51Y A1001      27.504   2.043   5.486  0.00  0.00    +0.000 A 
ATOM      6  C3  51Y A1001      28.276   0.924   5.272  0.00  0.00    +0.000 A 
ATOM      7  C2  51Y A1001      28.354   0.340   4.027  0.00  0.00    +0.000 A 
ATOM      8 CL1  51Y A1001      29.166   0.241   6.580  0.00  0.00    +0.000 Cl
ENDROOT
BRANCH   7   9
ATOM      9  C17 51Y A1001      29.160  -0.822   3.833  0.00  0.00    +0.000 C 
ATOM     10  N18 51Y A1001      29.860  -1.743   3.688  0.00  0.00    +0.000 NA
ENDBRANCH   7   9
BRANCH   2  11
ATOM     11  N8  51Y A1001      26.022   3.728   4.723  0.00  0.00    +0.000 NA
BRANCH  11  12
ATOM     12  C9  51Y A1001      26.504   4.968   4.165  0.00  0.00    +0.000 C 
ATOM     13  C10 51Y A1001      25.487   6.089   4.244  0.00  0.00    +0.000 C 
ATOM     14  O11 51Y A1001      25.255   6.512   2.918  0.00  0.00    +0.000 OA
ATOM     15  C12 51Y A1001      24.168   5.729   4.895  0.00  0.00    +0.000 C 
ATOM     16  C13 51Y A1001      26.112   7.238   4.986  0.00  0.00    +0.000 C 
ATOM     17  C14 51Y A1001      27.561   6.892   5.196  0.00  0.00    +0.000 C 
ATOM     18  C15 51Y A1001      27.691   5.403   4.996  0.00  0.00    +0.000 C 
ENDBRANCH  11  12
ENDBRANCH   2  11
TORSDOF 3
ENDMDL
MODEL 8
REMARK VINA RESULT:      -6.7      3.339      6.137
REMARK  Name = ligand_pdbs\51Y.pdb
REMARK  3 active torsions:
REMARK  status: ('A' for Active; 'I' for Inactive)
REMARK    1  A    between atoms: C6_2  and  N8_8
REMARK    2  A    between atoms: C2_7  and  C17_17
REMARK    3  A    between atoms: N8_8  and  C9_9
REMARK                            x       y       z     vdW  Elec       q    Type
REMARK                         _______ _______ _______ _____ _____    ______ ____
ROOT
ATOM      1  C7  51Y A1001      28.048   3.343   6.243  0.00  0.00    +0.000 A 
ATOM      2  C6  51Y A1001      27.246   2.807   5.253  0.00  0.00    +0.000 A 
ATOM      3  C1  51Y A1001      29.188   2.697   6.664  0.00  0.00    +0.000 A 
ATOM      4  C5  51Y A1001      26.741   1.012   3.611  0.00  0.00    +0.000 C 
ATOM      5  C4  51Y A1001      27.601   1.605   4.678  0.00  0.00    +0.000 A 
ATOM      6  C3  51Y A1001      28.741   0.960   5.101  0.00  0.00    +0.000 A 
ATOM      7  C2  51Y A1001      29.537   1.497   6.089  0.00  0.00    +0.000 A 
ATOM      8 CL1  51Y A1001      29.182  -0.545   4.388  0.00  0.00    +0.000 Cl
ENDROOT
BRANCH   7   9
ATOM      9  C17 51Y A1001      30.717   0.809   6.506  0.00  0.00    +0.000 C 
ATOM     10  N18 51Y A1001      31.698   0.292   6.866  0.00  0.00    +0.000 NA
ENDBRANCH   7   9
BRANCH   2  11
ATOM     11  N8  51Y A1001      26.076   3.417   4.773  0.00  0.00    +0.000 NA
BRANCH  11  12
ATOM     12  C9  51Y A1001      25.878   4.789   5.174  0.00  0.00    +0.000 C 
ATOM     13  C10 51Y A1001      26.556   5.780   4.248  0.00  0.00    +0.000 C 
ATOM     14  O11 51Y A1001      27.458   6.518   5.044  0.00  0.00    +0.000 OA
ATOM     15  C12 51Y A1001      27.299   5.175   3.076  0.00  0.00    +0.000 C 
ATOM     16  C13 51Y A1001      25.512   6.735   3.738  0.00  0.00    +0.000 C 
ATOM     17  C14 51Y A1001      24.242   6.444   4.491  0.00  0.00    +0.000 C 
ATOM     18  C15 51Y A1001      24.394   5.071   5.096  0.00  0.00    +0.000 C 
ENDBRANCH  11  12
ENDBRANCH   2  11
TORSDOF 3
ENDMDL
MODEL 9
REMARK VINA RESULT:      -6.2      1.784      2.402
REMARK  Name = ligand_pdbs\51Y.pdb
REMARK  3 active torsions:
REMARK  status: ('A' for Active; 'I' for Inactive)
REMARK    1  A    between atoms: C6_2  and  N8_8
REMARK    2  A    between atoms: C2_7  and  C17_17
REMARK    3  A    between atoms: N8_8  and  C9_9
REMARK                            x       y       z     vdW  Elec       q    Type
REMARK                         _______ _______ _______ _____ _____    ______ ____
ROOT
ATOM      1  C7  51Y A1001      25.151   2.486   4.989  0.00  0.00    +0.000 A 
ATOM      2  C6  51Y A1001      26.494   2.371   5.293  0.00  0.00    +0.000 A 
ATOM      3  C1  51Y A1001      24.576   3.715   4.756  0.00  0.00    +0.000 A 
ATOM      4  C5  51Y A1001      28.719   3.399   5.695  0.00  0.00    +0.000 C 
ATOM      5  C4  51Y A1001      27.267   3.510   5.361  0.00  0.00    +0.000 A 
ATOM      6  C3  51Y A1001      26.691   4.738   5.130  0.00  0.00    +0.000 A 
ATOM      7  C2  51Y A1001      25.351   4.849   4.828  0.00  0.00    +0.000 A 
ATOM      8 CL1  51Y A1001      27.656   6.162   5.221  0.00  0.00    +0.000 Cl
ENDROOT
BRANCH   7   9
ATOM      9  C17 51Y A1001      24.779   6.135   4.587  0.00  0.00    +0.000 C 
ATOM     10  N18 51Y A1001      24.360   7.203   4.383  0.00  0.00    +0.000 NA
ENDBRANCH   7   9
BRANCH   2  11
ATOM     11  N8  51Y A1001      27.143   1.149   5.534  0.00  0.00    +0.000 NA
BRANCH  11  12
ATOM     12  C9  51Y A1001      27.963   0.654   4.453  0.00  0.00    +0.000 C 
ATOM     13  C10 51Y A1001      28.100  -0.855   4.457  0.00  0.00    +0.000 C 
ATOM     14  O11 51Y A1001      29.480  -1.131   4.563  0.00  0.00    +0.000 OA
ATOM     15  C12 51Y A1001      27.358  -1.575   5.563  0.00  0.00    +0.000 C 
ATOM     16  C13 51Y A1001      27.633  -1.372   3.125  0.00  0.00    +0.000 C 
ATOM     17  C14 51Y A1001      27.388  -0.173   2.248  0.00  0.00    +0.000 C 
ATOM     18  C15 51Y A1001      27.271   1.021   3.160  0.00  0.00    +0.000 C 
ENDBRANCH  11  12
ENDBRANCH   2  11
TORSDOF 3
ENDMDL
