MODEL 1
REMARK VINA RESULT:      -4.9      0.000      0.000
REMARK  Name = ligand_pdbs\5CT.pdb
REMARK  10 active torsions:
REMARK  status: ('A' for Active; 'I' for Inactive)
REMARK    1  A    between atoms: CG_1  and  CD_2
REMARK    2  A    between atoms: CG_1  and  CB_11
REMARK    3  A    between atoms: CD_2  and  CE_3
REMARK    4  A    between atoms: CE_3  and  NZ_4
REMARK    5  A    between atoms: NZ_4  and  C1_5
REMARK    6  A    between atoms: C1_5  and  C2_6
REMARK    7  A    between atoms: C2_6  and  C3_7
REMARK    8  A    between atoms: C3_7  and  C4_8
REMARK    9  A    between atoms: CB_11  and  CA_12
REMARK   10  A    between atoms: CA_12  and  C_13
REMARK                            x       y       z     vdW  Elec       q    Type
REMARK                         _______ _______ _______ _____ _____    ______ ____
ROOT
ATOM      1  CE  5CT F  50      24.106   2.555   4.280  0.00  0.00    +0.000 C 
ENDROOT
BRANCH   1   2
ATOM      2  CD  5CT F  50      24.674   1.407   3.400  0.00  0.00    +0.000 C 
BRANCH   2   3
ATOM      3  CG  5CT F  50      26.058   1.722   2.790  0.00  0.00    +0.000 C 
BRANCH   3   4
ATOM      4  CB  5CT F  50      27.174   0.778   3.285  0.00  0.00    +0.000 C 
BRANCH   4   5
ATOM      5  CA  5CT F  50      28.124   1.445   4.292  0.00  0.00    +0.000 C 
ATOM      6  N   5CT F  50      29.478   1.262   3.900  0.00  0.00    +0.000 NA
BRANCH   5   7
ATOM      7  C   5CT F  50      27.989   0.831   5.645  0.00  0.00    +0.000 C 
ATOM      8  O   5CT F  50      28.571  -0.247   5.920  0.00  0.00    +0.000 OA
ENDBRANCH   5   7
ENDBRANCH   4   5
ENDBRANCH   3   4
ENDBRANCH   2   3
ENDBRANCH   1   2
BRANCH   1   9
ATOM      9  NZ  5CT F  50      24.959   2.727   5.443  0.00  0.00    +0.000 NA
BRANCH   9  10
ATOM     10  C1  5CT F  50      25.207   4.142   5.669  0.00  0.00    +0.000 C 
BRANCH  10  11
ATOM     11  C2  5CT F  50      25.001   4.918   4.374  0.00  0.00    +0.000 C 
ATOM     12  O1  5CT F  50      24.260   6.068   4.648  0.00  0.00    +0.000 OA
BRANCH  11  13
ATOM     13  C3  5CT F  50      26.361   5.303   3.794  0.00  0.00    +0.000 C 
BRANCH  13  14
ATOM     14  C4  5CT F  50      27.439   5.475   4.877  0.00  0.00    +0.000 C 
ATOM     15  N1  5CT F  50      27.580   6.859   5.226  0.00  0.00    +0.000 NA
ENDBRANCH  13  14
ENDBRANCH  11  13
ENDBRANCH  10  11
ENDBRANCH   9  10
ENDBRANCH   1   9
TORSDOF 10
ENDMDL
MODEL 2
REMARK VINA RESULT:      -4.9      2.131      2.820
REMARK  Name = ligand_pdbs\5CT.pdb
REMARK  10 active torsions:
REMARK  status: ('A' for Active; 'I' for Inactive)
REMARK    1  A    between atoms: CG_1  and  CD_2
REMARK    2  A    between atoms: CG_1  and  CB_11
REMARK    3  A    between atoms: CD_2  and  CE_3
REMARK    4  A    between atoms: CE_3  and  NZ_4
REMARK    5  A    between atoms: NZ_4  and  C1_5
REMARK    6  A    between atoms: C1_5  and  C2_6
REMARK    7  A    between atoms: C2_6  and  C3_7
REMARK    8  A    between atoms: C3_7  and  C4_8
REMARK    9  A    between atoms: CB_11  and  CA_12
REMARK   10  A    between atoms: CA_12  and  C_13
REMARK                            x       y       z     vdW  Elec       q    Type
REMARK                         _______ _______ _______ _____ _____    ______ ____
ROOT
ATOM      1  CE  5CT F  50      27.914   2.812   3.693  0.00  0.00    +0.000 C 
ENDROOT
BRANCH   1   2
ATOM      2  CD  5CT F  50      26.479   2.613   3.132  0.00  0.00    +0.000 C 
BRANCH   2   3
ATOM      3  CG  5CT F  50      26.157   1.147   2.765  0.00  0.00    +0.000 C 
BRANCH   3   4
ATOM      4  CB  5CT F  50      27.333   0.179   3.016  0.00  0.00    +0.000 C 
BRANCH   4   5
ATOM      5  CA  5CT F  50      27.037  -0.852   4.116  0.00  0.00    +0.000 C 
ATOM      6  N   5CT F  50      27.619  -0.450   5.349  0.00  0.00    +0.000 NA
BRANCH   5   7
ATOM      7  C   5CT F  50      27.633  -2.179   3.781  0.00  0.00    +0.000 C 
ATOM      8  O   5CT F  50      28.878  -2.341   3.784  0.00  0.00    +0.000 OA
ENDBRANCH   5   7
ENDBRANCH   4   5
ENDBRANCH   3   4
ENDBRANCH   2   3
ENDBRANCH   1   2
BRANCH   1   9
ATOM      9  NZ  5CT F  50      27.887   3.851   4.706  0.00  0.00    +0.000 NA
BRANCH   9  10
ATOM     10  C1  5CT F  50      27.661   5.146   4.081  0.00  0.00    +0.000 C 
BRANCH  10  11
ATOM     11  C2  5CT F  50      26.697   5.968   4.927  0.00  0.00    +0.000 C 
ATOM     12  O1  5CT F  50      27.332   7.147   5.320  0.00  0.00    +0.000 OA
BRANCH  11  13
ATOM     13  C3  5CT F  50      25.455   6.298   4.101  0.00  0.00    +0.000 C 
BRANCH  13  14
ATOM     14  C4  5CT F  50      24.209   5.530   4.571  0.00  0.00    +0.000 C 
ATOM     15  N1  5CT F  50      24.560   4.585   5.590  0.00  0.00    +0.000 NA
ENDBRANCH  13  14
ENDBRANCH  11  13
ENDBRANCH  10  11
ENDBRANCH   9  10
ENDBRANCH   1   9
TORSDOF 10
ENDMDL
MODEL 3
REMARK VINA RESULT:      -4.8      1.691      4.967
REMARK  Name = ligand_pdbs\5CT.pdb
REMARK  10 active torsions:
REMARK  status: ('A' for Active; 'I' for Inactive)
REMARK    1  A    between atoms: CG_1  and  CD_2
REMARK    2  A    between atoms: CG_1  and  CB_11
REMARK    3  A    between atoms: CD_2  and  CE_3
REMARK    4  A    between atoms: CE_3  and  NZ_4
REMARK    5  A    between atoms: NZ_4  and  C1_5
REMARK    6  A    between atoms: C1_5  and  C2_6
REMARK    7  A    between atoms: C2_6  and  C3_7
REMARK    8  A    between atoms: C3_7  and  C4_8
REMARK    9  A    between atoms: CB_11  and  CA_12
REMARK   10  A    between atoms: CA_12  and  C_13
REMARK                            x       y       z     vdW  Elec       q    Type
REMARK                         _______ _______ _______ _____ _____    ______ ____
ROOT
ATOM      1  CE  5CT F  50      25.532   0.540   3.720  0.00  0.00    +0.000 C 
ENDROOT
BRANCH   1   2
ATOM      2  CD  5CT F  50      26.267   1.545   2.792  0.00  0.00    +0.000 C 
BRANCH   2   3
ATOM      3  CG  5CT F  50      27.037   2.645   3.557  0.00  0.00    +0.000 C 
BRANCH   3   4
ATOM      4  CB  5CT F  50      26.364   4.032   3.478  0.00  0.00    +0.000 C 
BRANCH   4   5
ATOM      5  CA  5CT F  50      25.689   4.448   4.794  0.00  0.00    +0.000 C 
ATOM      6  N   5CT F  50      26.350   3.854   5.905  0.00  0.00    +0.000 NA
BRANCH   5   7
ATOM      7  C   5CT F  50      24.274   3.977   4.844  0.00  0.00    +0.000 C 
ATOM      8  O   5CT F  50      23.329   4.765   4.594  0.00  0.00    +0.000 OA
ENDBRANCH   5   7
ENDBRANCH   4   5
ENDBRANCH   3   4
ENDBRANCH   2   3
ENDBRANCH   1   2
BRANCH   1   9
ATOM      9  NZ  5CT F  50      26.236   0.465   4.988  0.00  0.00    +0.000 NA
BRANCH   9  10
ATOM     10  C1  5CT F  50      26.907  -0.821   5.106  0.00  0.00    +0.000 C 
BRANCH  10  11
ATOM     11  C2  5CT F  50      28.396  -0.607   5.348  0.00  0.00    +0.000 C 
ATOM     12  O1  5CT F  50      29.040  -0.474   4.118  0.00  0.00    +0.000 OA
BRANCH  11  13
ATOM     13  C3  5CT F  50      28.596   0.660   6.178  0.00  0.00    +0.000 C 
BRANCH  13  14
ATOM     14  C4  5CT F  50      30.075   1.057   6.307  0.00  0.00    +0.000 C 
ATOM     15  N1  5CT F  50      30.308   2.329   5.687  0.00  0.00    +0.000 NA
ENDBRANCH  13  14
ENDBRANCH  11  13
ENDBRANCH  10  11
ENDBRANCH   9  10
ENDBRANCH   1   9
TORSDOF 10
ENDMDL
MODEL 4
REMARK VINA RESULT:      -4.8      2.115      5.625
REMARK  Name = ligand_pdbs\5CT.pdb
REMARK  10 active torsions:
REMARK  status: ('A' for Active; 'I' for Inactive)
REMARK    1  A    between atoms: CG_1  and  CD_2
REMARK    2  A    between atoms: CG_1  and  CB_11
REMARK    3  A    between atoms: CD_2  and  CE_3
REMARK    4  A    between atoms: CE_3  and  NZ_4
REMARK    5  A    between atoms: NZ_4  and  C1_5
REMARK    6  A    between atoms: C1_5  and  C2_6
REMARK    7  A    between atoms: C2_6  and  C3_7
REMARK    8  A    between atoms: C3_7  and  C4_8
REMARK    9  A    between atoms: CB_11  and  CA_12
REMARK   10  A    between atoms: CA_12  and  C_13
REMARK                            x       y       z     vdW  Elec       q    Type
REMARK                         _______ _______ _______ _____ _____    ______ ____
ROOT
ATOM      1  CE  5CT F  50      27.971   3.122   5.119  0.00  0.00    +0.000 C 
ENDROOT
BRANCH   1   2
ATOM      2  CD  5CT F  50      27.484   3.438   3.678  0.00  0.00    +0.000 C 
BRANCH   2   3
ATOM      3  CG  5CT F  50      27.320   4.949   3.398  0.00  0.00    +0.000 C 
BRANCH   3   4
ATOM      4  CB  5CT F  50      26.708   5.728   4.581  0.00  0.00    +0.000 C 
BRANCH   4   5
ATOM      5  CA  5CT F  50      25.299   6.262   4.284  0.00  0.00    +0.000 C 
ATOM      6  N   5CT F  50      25.007   7.387   5.103  0.00  0.00    +0.000 NA
BRANCH   5   7
ATOM      7  C   5CT F  50      24.260   5.236   4.590  0.00  0.00    +0.000 C 
ATOM      8  O   5CT F  50      24.356   4.514   5.612  0.00  0.00    +0.000 OA
ENDBRANCH   5   7
ENDBRANCH   4   5
ENDBRANCH   3   4
ENDBRANCH   2   3
ENDBRANCH   1   2
BRANCH   1   9
ATOM      9  NZ  5CT F  50      27.151   2.059   5.673  0.00  0.00    +0.000 NA
BRANCH   9  10
ATOM     10  C1  5CT F  50      27.830   0.781   5.519  0.00  0.00    +0.000 C 
BRANCH  10  11
ATOM     11  C2  5CT F  50      26.952  -0.180   4.726  0.00  0.00    +0.000 C 
ATOM     12  O1  5CT F  50      25.712   0.420   4.503  0.00  0.00    +0.000 OA
BRANCH  11  13
ATOM     13  C3  5CT F  50      27.625  -0.493   3.391  0.00  0.00    +0.000 C 
BRANCH  13  14
ATOM     14  C4  5CT F  50      29.158  -0.405   3.465  0.00  0.00    +0.000 C 
ATOM     15  N1  5CT F  50      29.723  -1.705   3.682  0.00  0.00    +0.000 NA
ENDBRANCH  13  14
ENDBRANCH  11  13
ENDBRANCH  10  11
ENDBRANCH   9  10
ENDBRANCH   1   9
TORSDOF 10
ENDMDL
MODEL 5
REMARK VINA RESULT:      -4.8      2.052      5.952
REMARK  Name = ligand_pdbs\5CT.pdb
REMARK  10 active torsions:
REMARK  status: ('A' for Active; 'I' for Inactive)
REMARK    1  A    between atoms: CG_1  and  CD_2
REMARK    2  A    between atoms: CG_1  and  CB_11
REMARK    3  A    between atoms: CD_2  and  CE_3
REMARK    4  A    between atoms: CE_3  and  NZ_4
REMARK    5  A    between atoms: NZ_4  and  C1_5
REMARK    6  A    between atoms: C1_5  and  C2_6
REMARK    7  A    between atoms: C2_6  and  C3_7
REMARK    8  A    between atoms: C3_7  and  C4_8
REMARK    9  A    between atoms: CB_11  and  CA_12
REMARK   10  A    between atoms: CA_12  and  C_13
REMARK                            x       y       z     vdW  Elec       q    Type
REMARK                         _______ _______ _______ _____ _____    ______ ____
ROOT
ATOM      1  CE  5CT F  50      28.097   3.416   5.166  0.00  0.00    +0.000 C 
ENDROOT
BRANCH   1   2
ATOM      2  CD  5CT F  50      27.536   3.377   3.718  0.00  0.00    +0.000 C 
BRANCH   2   3
ATOM      3  CG  5CT F  50      25.994   3.437   3.651  0.00  0.00    +0.000 C 
BRANCH   3   4
ATOM      4  CB  5CT F  50      25.318   3.389   5.037  0.00  0.00    +0.000 C 
BRANCH   4   5
ATOM      5  CA  5CT F  50      24.338   4.550   5.268  0.00  0.00    +0.000 C 
ATOM      6  N   5CT F  50      23.191   4.409   4.440  0.00  0.00    +0.000 NA
BRANCH   5   7
ATOM      7  C   5CT F  50      24.960   5.858   4.909  0.00  0.00    +0.000 C 
ATOM      8  O   5CT F  50      24.395   6.635   4.102  0.00  0.00    +0.000 OA
ENDBRANCH   5   7
ENDBRANCH   4   5
ENDBRANCH   3   4
ENDBRANCH   2   3
ENDBRANCH   1   2
BRANCH   1   9
ATOM      9  NZ  5CT F  50      29.195   2.471   5.274  0.00  0.00    +0.000 NA
BRANCH   9  10
ATOM     10  C1  5CT F  50      28.960   1.337   4.394  0.00  0.00    +0.000 C 
BRANCH  10  11
ATOM     11  C2  5CT F  50      28.710   0.082   5.222  0.00  0.00    +0.000 C 
ATOM     12  O1  5CT F  50      29.051   0.341   6.550  0.00  0.00    +0.000 OA
BRANCH  11  13
ATOM     13  C3  5CT F  50      27.233  -0.297   5.131  0.00  0.00    +0.000 C 
BRANCH  13  14
ATOM     14  C4  5CT F  50      26.984  -1.485   4.187  0.00  0.00    +0.000 C 
ATOM     15  N1  5CT F  50      28.175  -2.272   4.049  0.00  0.00    +0.000 NA
ENDBRANCH  13  14
ENDBRANCH  11  13
ENDBRANCH  10  11
ENDBRANCH   9  10
ENDBRANCH   1   9
TORSDOF 10
ENDMDL
MODEL 6
REMARK VINA RESULT:      -4.8      1.731      2.000
REMARK  Name = ligand_pdbs\5CT.pdb
REMARK  10 active torsions:
REMARK  status: ('A' for Active; 'I' for Inactive)
REMARK    1  A    between atoms: CG_1  and  CD_2
REMARK    2  A    between atoms: CG_1  and  CB_11
REMARK    3  A    between atoms: CD_2  and  CE_3
REMARK    4  A    between atoms: CE_3  and  NZ_4
REMARK    5  A    between atoms: NZ_4  and  C1_5
REMARK    6  A    between atoms: C1_5  and  C2_6
REMARK    7  A    between atoms: C2_6  and  C3_7
REMARK    8  A    between atoms: C3_7  and  C4_8
REMARK    9  A    between atoms: CB_11  and  CA_12
REMARK   10  A    between atoms: CA_12  and  C_13
REMARK                            x       y       z     vdW  Elec       q    Type
REMARK                         _______ _______ _______ _____ _____    ______ ____
ROOT
ATOM      1  CE  5CT F  50      26.948   3.413   4.810  0.00  0.00    +0.000 C 
ENDROOT
BRANCH   1   2
ATOM      2  CD  5CT F  50      27.358   2.582   3.563  0.00  0.00    +0.000 C 
BRANCH   2   3
ATOM      3  CG  5CT F  50      26.166   1.900   2.855  0.00  0.00    +0.000 C 
BRANCH   3   4
ATOM      4  CB  5CT F  50      26.176   0.362   2.983  0.00  0.00    +0.000 C 
BRANCH   4   5
ATOM      5  CA  5CT F  50      27.365  -0.165   3.801  0.00  0.00    +0.000 C 
ATOM      6  N   5CT F  50      28.076  -1.155   3.069  0.00  0.00    +0.000 NA
BRANCH   5   7
ATOM      7  C   5CT F  50      26.902  -0.820   5.059  0.00  0.00    +0.000 C 
ATOM      8  O   5CT F  50      26.831  -2.071   5.140  0.00  0.00    +0.000 OA
ENDBRANCH   5   7
ENDBRANCH   4   5
ENDBRANCH   3   4
ENDBRANCH   2   3
ENDBRANCH   1   2
BRANCH   1   9
ATOM      9  NZ  5CT F  50      25.699   2.891   5.338  0.00  0.00    +0.000 NA
BRANCH   9  10
ATOM     10  C1  5CT F  50      24.837   3.990   5.746  0.00  0.00    +0.000 C 
BRANCH  10  11
ATOM     11  C2  5CT F  50      24.264   4.682   4.516  0.00  0.00    +0.000 C 
ATOM     12  O1  5CT F  50      22.915   4.344   4.394  0.00  0.00    +0.000 OA
BRANCH  11  13
ATOM     13  C3  5CT F  50      24.406   6.195   4.676  0.00  0.00    +0.000 C 
BRANCH  13  14
ATOM     14  C4  5CT F  50      25.696   6.739   4.042  0.00  0.00    +0.000 C 
ATOM     15  N1  5CT F  50      26.646   7.085   5.060  0.00  0.00    +0.000 NA
ENDBRANCH  13  14
ENDBRANCH  11  13
ENDBRANCH  10  11
ENDBRANCH   9  10
ENDBRANCH   1   9
TORSDOF 10
ENDMDL
MODEL 7
REMARK VINA RESULT:      -4.7      2.253      2.705
REMARK  Name = ligand_pdbs\5CT.pdb
REMARK  10 active torsions:
REMARK  status: ('A' for Active; 'I' for Inactive)
REMARK    1  A    between atoms: CG_1  and  CD_2
REMARK    2  A    between atoms: CG_1  and  CB_11
REMARK    3  A    between atoms: CD_2  and  CE_3
REMARK    4  A    between atoms: CE_3  and  NZ_4
REMARK    5  A    between atoms: NZ_4  and  C1_5
REMARK    6  A    between atoms: C1_5  and  C2_6
REMARK    7  A    between atoms: C2_6  and  C3_7
REMARK    8  A    between atoms: C3_7  and  C4_8
REMARK    9  A    between atoms: CB_11  and  CA_12
REMARK   10  A    between atoms: CA_12  and  C_13
REMARK                            x       y       z     vdW  Elec       q    Type
REMARK                         _______ _______ _______ _____ _____    ______ ____
ROOT
ATOM      1  CE  5CT F  50      26.488   2.794   4.103  0.00  0.00    +0.000 C 
ENDROOT
BRANCH   1   2
ATOM      2  CD  5CT F  50      26.629   1.577   3.147  0.00  0.00    +0.000 C 
BRANCH   2   3
ATOM      3  CG  5CT F  50      27.978   0.837   3.284  0.00  0.00    +0.000 C 
BRANCH   3   4
ATOM      4  CB  5CT F  50      28.121   0.064   4.612  0.00  0.00    +0.000 C 
BRANCH   4   5
ATOM      5  CA  5CT F  50      29.453   0.339   5.327  0.00  0.00    +0.000 C 
ATOM      6  N   5CT F  50      29.334   0.085   6.721  0.00  0.00    +0.000 NA
BRANCH   5   7
ATOM      7  C   5CT F  50      29.850   1.770   5.190  0.00  0.00    +0.000 C 
ATOM      8  O   5CT F  50      29.716   2.566   6.152  0.00  0.00    +0.000 OA
ENDBRANCH   5   7
ENDBRANCH   4   5
ENDBRANCH   3   4
ENDBRANCH   2   3
ENDBRANCH   1   2
BRANCH   1   9
ATOM      9  NZ  5CT F  50      26.929   3.992   3.413  0.00  0.00    +0.000 NA
BRANCH   9  10
ATOM     10  C1  5CT F  50      27.729   4.813   4.310  0.00  0.00    +0.000 C 
BRANCH  10  11
ATOM     11  C2  5CT F  50      26.859   5.899   4.932  0.00  0.00    +0.000 C 
ATOM     12  O1  5CT F  50      27.671   6.971   5.304  0.00  0.00    +0.000 OA
BRANCH  11  13
ATOM     13  C3  5CT F  50      25.823   6.363   3.910  0.00  0.00    +0.000 C 
BRANCH  13  14
ATOM     14  C4  5CT F  50      24.414   6.490   4.511  0.00  0.00    +0.000 C 
ATOM     15  N1  5CT F  50      23.805   5.197   4.636  0.00  0.00    +0.000 NA
ENDBRANCH  13  14
ENDBRANCH  11  13
ENDBRANCH  10  11
ENDBRANCH   9  10
ENDBRANCH   1   9
TORSDOF 10
ENDMDL
MODEL 8
REMARK VINA RESULT:      -4.7      1.731      1.857
REMARK  Name = ligand_pdbs\5CT.pdb
REMARK  10 active torsions:
REMARK  status: ('A' for Active; 'I' for Inactive)
REMARK    1  A    between atoms: CG_1  and  CD_2
REMARK    2  A    between atoms: CG_1  and  CB_11
REMARK    3  A    between atoms: CD_2  and  CE_3
REMARK    4  A    between atoms: CE_3  and  NZ_4
REMARK    5  A    between atoms: NZ_4  and  C1_5
REMARK    6  A    between atoms: C1_5  and  C2_6
REMARK    7  A    between atoms: C2_6  and  C3_7
REMARK    8  A    between atoms: C3_7  and  C4_8
REMARK    9  A    between atoms: CB_11  and  CA_12
REMARK   10  A    between atoms: CA_12  and  C_13
REMARK                            x       y       z     vdW  Elec       q    Type
REMARK                         _______ _______ _______ _____ _____    ______ ____
ROOT
ATOM      1  CE  5CT F  50      24.679   2.415   4.732  0.00  0.00    +0.000 C 
ENDROOT
BRANCH   1   2
ATOM      2  CD  5CT F  50      24.926   1.688   3.382  0.00  0.00    +0.000 C 
BRANCH   2   3
ATOM      3  CG  5CT F  50      26.421   1.456   3.068  0.00  0.00    +0.000 C 
BRANCH   3   4
ATOM      4  CB  5CT F  50      26.785  -0.032   2.885  0.00  0.00    +0.000 C 
BRANCH   4   5
ATOM      5  CA  5CT F  50      26.770  -0.821   4.204  0.00  0.00    +0.000 C 
ATOM      6  N   5CT F  50      27.499  -0.129   5.210  0.00  0.00    +0.000 NA
BRANCH   5   7
ATOM      7  C   5CT F  50      27.431  -2.149   4.042  0.00  0.00    +0.000 C 
ATOM      8  O   5CT F  50      28.682  -2.240   3.993  0.00  0.00    +0.000 OA
ENDBRANCH   5   7
ENDBRANCH   4   5
ENDBRANCH   3   4
ENDBRANCH   2   3
ENDBRANCH   1   2
BRANCH   1   9
ATOM      9  NZ  5CT F  50      23.869   3.596   4.494  0.00  0.00    +0.000 NA
BRANCH   9  10
ATOM     10  C1  5CT F  50      24.378   4.711   5.278  0.00  0.00    +0.000 C 
BRANCH  10  11
ATOM     11  C2  5CT F  50      25.152   5.666   4.378  0.00  0.00    +0.000 C 
ATOM     12  O1  5CT F  50      24.419   6.845   4.232  0.00  0.00    +0.000 OA
BRANCH  11  13
ATOM     13  C3  5CT F  50      26.506   5.974   5.014  0.00  0.00    +0.000 C 
BRANCH  13  14
ATOM     14  C4  5CT F  50      27.667   5.245   4.317  0.00  0.00    +0.000 C 
ATOM     15  N1  5CT F  50      28.030   4.068   5.052  0.00  0.00    +0.000 NA
ENDBRANCH  13  14
ENDBRANCH  11  13
ENDBRANCH  10  11
ENDBRANCH   9  10
ENDBRANCH   1   9
TORSDOF 10
ENDMDL
MODEL 9
REMARK VINA RESULT:      -4.7      1.896      5.707
REMARK  Name = ligand_pdbs\5CT.pdb
REMARK  10 active torsions:
REMARK  status: ('A' for Active; 'I' for Inactive)
REMARK    1  A    between atoms: CG_1  and  CD_2
REMARK    2  A    between atoms: CG_1  and  CB_11
REMARK    3  A    between atoms: CD_2  and  CE_3
REMARK    4  A    between atoms: CE_3  and  NZ_4
REMARK    5  A    between atoms: NZ_4  and  C1_5
REMARK    6  A    between atoms: C1_5  and  C2_6
REMARK    7  A    between atoms: C2_6  and  C3_7
REMARK    8  A    between atoms: C3_7  and  C4_8
REMARK    9  A    between atoms: CB_11  and  CA_12
REMARK   10  A    between atoms: CA_12  and  C_13
REMARK                            x       y       z     vdW  Elec       q    Type
REMARK                         _______ _______ _______ _____ _____    ______ ____
ROOT
ATOM      1  CE  5CT F  50      27.457   2.926   6.132  0.00  0.00    +0.000 C 
ENDROOT
BRANCH   1   2
ATOM      2  CD  5CT F  50      27.810   3.919   4.991  0.00  0.00    +0.000 C 
BRANCH   2   3
ATOM      3  CG  5CT F  50      26.635   4.197   4.027  0.00  0.00    +0.000 C 
BRANCH   3   4
ATOM      4  CB  5CT F  50      26.354   5.700   3.821  0.00  0.00    +0.000 C 
BRANCH   4   5
ATOM      5  CA  5CT F  50      24.912   6.096   4.176  0.00  0.00    +0.000 C 
ATOM      6  N   5CT F  50      24.902   7.213   5.056  0.00  0.00    +0.000 NA
BRANCH   5   7
ATOM      7  C   5CT F  50      24.212   4.989   4.891  0.00  0.00    +0.000 C 
ATOM      8  O   5CT F  50      23.068   4.618   4.531  0.00  0.00    +0.000 OA
ENDBRANCH   5   7
ENDBRANCH   4   5
ENDBRANCH   3   4
ENDBRANCH   2   3
ENDBRANCH   1   2
BRANCH   1   9
ATOM      9  NZ  5CT F  50      28.470   1.887   6.187  0.00  0.00    +0.000 NA
BRANCH   9  10
ATOM     10  C1  5CT F  50      27.973   0.677   5.551  0.00  0.00    +0.000 C 
BRANCH  10  11
ATOM     11  C2  5CT F  50      28.823   0.347   4.330  0.00  0.00    +0.000 C 
ATOM     12  O1  5CT F  50      29.356  -0.934   4.483  0.00  0.00    +0.000 OA
BRANCH  11  13
ATOM     13  C3  5CT F  50      27.950   0.399   3.078  0.00  0.00    +0.000 C 
BRANCH  13  14
ATOM     14  C4  5CT F  50      26.447   0.376   3.402  0.00  0.00    +0.000 C 
ATOM     15  N1  5CT F  50      25.713   1.122   2.421  0.00  0.00    +0.000 NA
ENDBRANCH  13  14
ENDBRANCH  11  13
ENDBRANCH  10  11
ENDBRANCH   9  10
ENDBRANCH   1   9
TORSDOF 10
ENDMDL
