MODEL 1
REMARK VINA RESULT:      -7.3      0.000      0.000
REMARK  Name = ligand_pdbs\5QH.pdb
REMARK  6 active torsions:
REMARK  status: ('A' for Active; 'I' for Inactive)
REMARK    1  A    between atoms: NAT_10  and  CAS_11
REMARK    2  A    between atoms: CAS_11  and  CAB_12
REMARK    3  A    between atoms: CAB_12  and  CAC_14
REMARK    4  A    between atoms: CAC_14  and  NAD_15
REMARK    5  A    between atoms: CAE_16  and  CAG_18
REMARK    6  A    between atoms: CAI_23  and  CAM_24
REMARK                            x       y       z     vdW  Elec       q    Type
REMARK                         _______ _______ _______ _____ _____    ______ ____
ROOT
ATOM      1  NAD 5QH A 702      27.913   5.206   5.807  0.00  0.00    +0.000 NA
ATOM      2  CAE 5QH A 702      27.610   4.062   6.437  0.00  0.00    +0.000 C 
ATOM      3  OAF 5QH A 702      26.642   3.941   7.189  0.00  0.00    +0.000 OA
ENDROOT
BRANCH   2   4
ATOM      4  CAG 5QH A 702      28.470   2.975   6.189  0.00  0.00    +0.000 A 
ATOM      5  CAH 5QH A 702      28.008   1.733   5.719  0.00  0.00    +0.000 A 
ATOM      6  CAL 5QH A 702      29.840   3.150   6.391  0.00  0.00    +0.000 A 
ATOM      7  CAK 5QH A 702      30.746   2.116   6.153  0.00  0.00    +0.000 A 
ATOM      8  CAJ 5QH A 702      30.281   0.890   5.696  0.00  0.00    +0.000 A 
ATOM      9  CAI 5QH A 702      28.919   0.694   5.477  0.00  0.00    +0.000 A 
BRANCH   9  10
ATOM     10  CAM 5QH A 702      28.508  -0.555   5.019  0.00  0.00    +0.000 A 
ATOM     11  NAN 5QH A 702      29.236  -1.191   4.068  0.00  0.00    +0.000 NA
ATOM     12  CAO 5QH A 702      28.835  -2.454   3.589  0.00  0.00    +0.000 A 
ATOM     13  CAP 5QH A 702      27.669  -3.025   4.107  0.00  0.00    +0.000 A 
ATOM     14  CAQ 5QH A 702      26.915  -2.377   5.088  0.00  0.00    +0.000 A 
ATOM     15  CAR 5QH A 702      27.338  -1.133   5.550  0.00  0.00    +0.000 A 
ENDBRANCH   9  10
ENDBRANCH   2   4
BRANCH   1  16
ATOM     16  CAC 5QH A 702      27.206   6.472   6.016  0.00  0.00    +0.000 C 
BRANCH  16  17
ATOM     17  CAB 5QH A 702      26.372   6.567   4.745  0.00  0.00    +0.000 C 
ATOM     18  OAA 5QH A 702      26.449   7.857   4.185  0.00  0.00    +0.000 OA
BRANCH  17  19
ATOM     19  CAS 5QH A 702      24.887   6.218   5.042  0.00  0.00    +0.000 C 
BRANCH  19  29
ATOM     20  CAU 5QH A 702      23.861   4.022   5.225  0.00  0.00    +0.000 C 
ATOM     21  CAV 5QH A 702      23.456   2.834   4.462  0.00  0.00    +0.000 C 
ATOM     22  CAW 5QH A 702      24.569   2.278   3.804  0.00  0.00    +0.000 A 
ATOM     23  CBC 5QH A 702      24.586   0.899   3.527  0.00  0.00    +0.000 A 
ATOM     24  CBB 5QH A 702      25.669   0.299   2.884  0.00  0.00    +0.000 A 
ATOM     25  CBA 5QH A 702      26.758   1.082   2.483  0.00  0.00    +0.000 A 
ATOM     26  CAZ 5QH A 702      26.757   2.453   2.745  0.00  0.00    +0.000 A 
ATOM     27  CAX 5QH A 702      25.674   3.057   3.405  0.00  0.00    +0.000 A 
ATOM     28  CAY 5QH A 702      25.737   4.431   3.649  0.00  0.00    +0.000 C 
ATOM     29  NAT 5QH A 702      24.553   4.965   4.347  0.00  0.00    +0.000 NA
ENDBRANCH  19  29
ENDBRANCH  17  19
ENDBRANCH  16  17
ENDBRANCH   1  16
TORSDOF 6
ENDMDL
MODEL 2
REMARK VINA RESULT:      -6.8      4.961      7.681
REMARK  Name = ligand_pdbs\5QH.pdb
REMARK  6 active torsions:
REMARK  status: ('A' for Active; 'I' for Inactive)
REMARK    1  A    between atoms: NAT_10  and  CAS_11
REMARK    2  A    between atoms: CAS_11  and  CAB_12
REMARK    3  A    between atoms: CAB_12  and  CAC_14
REMARK    4  A    between atoms: CAC_14  and  NAD_15
REMARK    5  A    between atoms: CAE_16  and  CAG_18
REMARK    6  A    between atoms: CAI_23  and  CAM_24
REMARK                            x       y       z     vdW  Elec       q    Type
REMARK                         _______ _______ _______ _____ _____    ______ ____
ROOT
ATOM      1  NAD 5QH A 702      25.216   7.227   5.491  0.00  0.00    +0.000 NA
ATOM      2  CAE 5QH A 702      26.013   6.239   5.060  0.00  0.00    +0.000 C 
ATOM      3  OAF 5QH A 702      27.229   6.370   4.912  0.00  0.00    +0.000 OA
ENDROOT
BRANCH   2   4
ATOM      4  CAG 5QH A 702      25.381   5.012   4.780  0.00  0.00    +0.000 A 
ATOM      5  CAH 5QH A 702      26.094   3.818   4.580  0.00  0.00    +0.000 A 
ATOM      6  CAL 5QH A 702      23.986   4.979   4.729  0.00  0.00    +0.000 A 
ATOM      7  CAK 5QH A 702      23.298   3.794   4.466  0.00  0.00    +0.000 A 
ATOM      8  CAJ 5QH A 702      24.011   2.619   4.263  0.00  0.00    +0.000 A 
ATOM      9  CAI 5QH A 702      25.403   2.625   4.319  0.00  0.00    +0.000 A 
BRANCH   9  10
ATOM     10  CAM 5QH A 702      26.067   1.421   4.107  0.00  0.00    +0.000 A 
ATOM     11  NAN 5QH A 702      25.900   0.401   4.985  0.00  0.00    +0.000 NA
ATOM     12  CAO 5QH A 702      26.565  -0.825   4.790  0.00  0.00    +0.000 A 
ATOM     13  CAP 5QH A 702      27.407  -0.959   3.681  0.00  0.00    +0.000 A 
ATOM     14  CAQ 5QH A 702      27.583   0.085   2.771  0.00  0.00    +0.000 A 
ATOM     15  CAR 5QH A 702      26.907   1.285   2.983  0.00  0.00    +0.000 A 
ENDBRANCH   9  10
ENDBRANCH   2   4
BRANCH   1  16
ATOM     16  CAC 5QH A 702      25.664   8.600   5.734  0.00  0.00    +0.000 C 
BRANCH  16  17
ATOM     17  CAB 5QH A 702      24.466   9.185   6.470  0.00  0.00    +0.000 C 
ATOM     18  OAA 5QH A 702      23.257   8.782   5.870  0.00  0.00    +0.000 OA
BRANCH  17  19
ATOM     19  CAS 5QH A 702      24.544  10.736   6.489  0.00  0.00    +0.000 C 
BRANCH  19  29
ATOM     20  CAU 5QH A 702      23.953  12.661   7.850  0.00  0.00    +0.000 C 
ATOM     21  CAV 5QH A 702      23.059  13.130   8.919  0.00  0.00    +0.000 C 
ATOM     22  CAW 5QH A 702      23.230  12.344  10.074  0.00  0.00    +0.000 A 
ATOM     23  CBC 5QH A 702      22.973  12.909  11.335  0.00  0.00    +0.000 A 
ATOM     24  CBB 5QH A 702      23.134  12.174  12.510  0.00  0.00    +0.000 A 
ATOM     25  CBA 5QH A 702      23.541  10.836  12.439  0.00  0.00    +0.000 A 
ATOM     26  CAZ 5QH A 702      23.797  10.256  11.196  0.00  0.00    +0.000 A 
ATOM     27  CAX 5QH A 702      23.649  10.999  10.013  0.00  0.00    +0.000 A 
ATOM     28  CAY 5QH A 702      23.931  10.366   8.800  0.00  0.00    +0.000 C 
ATOM     29  NAT 5QH A 702      23.746  11.232   7.621  0.00  0.00    +0.000 NA
ENDBRANCH  19  29
ENDBRANCH  17  19
ENDBRANCH  16  17
ENDBRANCH   1  16
TORSDOF 6
ENDMDL
MODEL 3
REMARK VINA RESULT:      -6.6      1.412      1.743
REMARK  Name = ligand_pdbs\5QH.pdb
REMARK  6 active torsions:
REMARK  status: ('A' for Active; 'I' for Inactive)
REMARK    1  A    between atoms: NAT_10  and  CAS_11
REMARK    2  A    between atoms: CAS_11  and  CAB_12
REMARK    3  A    between atoms: CAB_12  and  CAC_14
REMARK    4  A    between atoms: CAC_14  and  NAD_15
REMARK    5  A    between atoms: CAE_16  and  CAG_18
REMARK    6  A    between atoms: CAI_23  and  CAM_24
REMARK                            x       y       z     vdW  Elec       q    Type
REMARK                         _______ _______ _______ _____ _____    ______ ____
ROOT
ATOM      1  NAD 5QH A 702      27.512   5.823   5.255  0.00  0.00    +0.000 NA
ATOM      2  CAE 5QH A 702      27.992   4.882   4.429  0.00  0.00    +0.000 C 
ATOM      3  OAF 5QH A 702      28.015   5.008   3.204  0.00  0.00    +0.000 OA
ENDROOT
BRANCH   2   4
ATOM      4  CAG 5QH A 702      28.483   3.715   5.044  0.00  0.00    +0.000 A 
ATOM      5  CAH 5QH A 702      28.447   2.455   4.420  0.00  0.00    +0.000 A 
ATOM      6  CAL 5QH A 702      29.056   3.820   6.313  0.00  0.00    +0.000 A 
ATOM      7  CAK 5QH A 702      29.570   2.703   6.971  0.00  0.00    +0.000 A 
ATOM      8  CAJ 5QH A 702      29.524   1.461   6.351  0.00  0.00    +0.000 A 
ATOM      9  CAI 5QH A 702      28.967   1.332   5.081  0.00  0.00    +0.000 A 
BRANCH   9  10
ATOM     10  CAM 5QH A 702      28.945   0.064   4.507  0.00  0.00    +0.000 A 
ATOM     11  NAN 5QH A 702      28.407  -0.972   5.196  0.00  0.00    +0.000 NA
ATOM     12  CAO 5QH A 702      28.378  -2.264   4.634  0.00  0.00    +0.000 A 
ATOM     13  CAP 5QH A 702      28.926  -2.451   3.361  0.00  0.00    +0.000 A 
ATOM     14  CAQ 5QH A 702      29.481  -1.388   2.644  0.00  0.00    +0.000 A 
ATOM     15  CAR 5QH A 702      29.489  -0.120   3.220  0.00  0.00    +0.000 A 
ENDBRANCH   9  10
ENDBRANCH   2   4
BRANCH   1  16
ATOM     16  CAC 5QH A 702      26.863   7.058   4.806  0.00  0.00    +0.000 C 
BRANCH  16  17
ATOM     17  CAB 5QH A 702      25.619   6.513   4.116  0.00  0.00    +0.000 C 
ATOM     18  OAA 5QH A 702      25.082   7.459   3.221  0.00  0.00    +0.000 OA
BRANCH  17  19
ATOM     19  CAS 5QH A 702      24.542   6.124   5.166  0.00  0.00    +0.000 C 
BRANCH  19  29
ATOM     20  CAU 5QH A 702      24.931   3.978   6.241  0.00  0.00    +0.000 C 
ATOM     21  CAV 5QH A 702      24.602   2.547   6.186  0.00  0.00    +0.000 C 
ATOM     22  CAW 5QH A 702      24.978   2.010   4.940  0.00  0.00    +0.000 A 
ATOM     23  CBC 5QH A 702      25.317   0.649   4.852  0.00  0.00    +0.000 A 
ATOM     24  CBB 5QH A 702      25.702   0.071   3.641  0.00  0.00    +0.000 A 
ATOM     25  CBA 5QH A 702      25.734   0.852   2.480  0.00  0.00    +0.000 A 
ATOM     26  CAZ 5QH A 702      25.396   2.205   2.548  0.00  0.00    +0.000 A 
ATOM     27  CAX 5QH A 702      25.022   2.791   3.767  0.00  0.00    +0.000 A 
ATOM     28  CAY 5QH A 702      24.707   4.152   3.773  0.00  0.00    +0.000 C 
ATOM     29  NAT 5QH A 702      24.328   4.669   5.101  0.00  0.00    +0.000 NA
ENDBRANCH  19  29
ENDBRANCH  17  19
ENDBRANCH  16  17
ENDBRANCH   1  16
TORSDOF 6
ENDMDL
MODEL 4
REMARK VINA RESULT:      -6.0      1.509      3.862
REMARK  Name = ligand_pdbs\5QH.pdb
REMARK  6 active torsions:
REMARK  status: ('A' for Active; 'I' for Inactive)
REMARK    1  A    between atoms: NAT_10  and  CAS_11
REMARK    2  A    between atoms: CAS_11  and  CAB_12
REMARK    3  A    between atoms: CAB_12  and  CAC_14
REMARK    4  A    between atoms: CAC_14  and  NAD_15
REMARK    5  A    between atoms: CAE_16  and  CAG_18
REMARK    6  A    between atoms: CAI_23  and  CAM_24
REMARK                            x       y       z     vdW  Elec       q    Type
REMARK                         _______ _______ _______ _____ _____    ______ ____
ROOT
ATOM      1  NAD 5QH A 702      25.627   4.935   3.882  0.00  0.00    +0.000 NA
ATOM      2  CAE 5QH A 702      26.402   4.173   3.097  0.00  0.00    +0.000 C 
ATOM      3  OAF 5QH A 702      27.284   4.632   2.370  0.00  0.00    +0.000 OA
ENDROOT
BRANCH   2   4
ATOM      4  CAG 5QH A 702      26.158   2.787   3.147  0.00  0.00    +0.000 A 
ATOM      5  CAH 5QH A 702      27.189   1.836   3.230  0.00  0.00    +0.000 A 
ATOM      6  CAL 5QH A 702      24.833   2.343   3.143  0.00  0.00    +0.000 A 
ATOM      7  CAK 5QH A 702      24.524   0.985   3.202  0.00  0.00    +0.000 A 
ATOM      8  CAJ 5QH A 702      25.550   0.051   3.277  0.00  0.00    +0.000 A 
ATOM      9  CAI 5QH A 702      26.878   0.469   3.292  0.00  0.00    +0.000 A 
BRANCH   9  10
ATOM     10  CAM 5QH A 702      27.866  -0.508   3.367  0.00  0.00    +0.000 A 
ATOM     11  NAN 5QH A 702      27.532  -1.769   3.738  0.00  0.00    +0.000 NA
ATOM     12  CAO 5QH A 702      28.517  -2.772   3.823  0.00  0.00    +0.000 A 
ATOM     13  CAP 5QH A 702      29.842  -2.434   3.529  0.00  0.00    +0.000 A 
ATOM     14  CAQ 5QH A 702      30.194  -1.138   3.144  0.00  0.00    +0.000 A 
ATOM     15  CAR 5QH A 702      29.199  -0.167   3.061  0.00  0.00    +0.000 A 
ENDBRANCH   9  10
ENDBRANCH   2   4
BRANCH   1  16
ATOM     16  CAC 5QH A 702      25.654   6.399   3.892  0.00  0.00    +0.000 C 
BRANCH  16  17
ATOM     17  CAB 5QH A 702      25.845   6.688   5.376  0.00  0.00    +0.000 C 
ATOM     18  OAA 5QH A 702      25.674   8.060   5.650  0.00  0.00    +0.000 OA
BRANCH  17  19
ATOM     19  CAS 5QH A 702      27.258   6.239   5.840  0.00  0.00    +0.000 C 
BRANCH  19  29
ATOM     20  CAU 5QH A 702      26.636   4.093   6.799  0.00  0.00    +0.000 C 
ATOM     21  CAV 5QH A 702      26.664   2.641   6.576  0.00  0.00    +0.000 C 
ATOM     22  CAW 5QH A 702      27.991   2.202   6.410  0.00  0.00    +0.000 A 
ATOM     23  CBC 5QH A 702      28.329   0.885   6.768  0.00  0.00    +0.000 A 
ATOM     24  CBB 5QH A 702      29.632   0.404   6.629  0.00  0.00    +0.000 A 
ATOM     25  CBA 5QH A 702      30.626   1.237   6.103  0.00  0.00    +0.000 A 
ATOM     26  CAZ 5QH A 702      30.308   2.547   5.738  0.00  0.00    +0.000 A 
ATOM     27  CAX 5QH A 702      29.001   3.037   5.890  0.00  0.00    +0.000 A 
ATOM     28  CAY 5QH A 702      28.747   4.359   5.518  0.00  0.00    +0.000 C 
ATOM     29  NAT 5QH A 702      27.347   4.775   5.718  0.00  0.00    +0.000 NA
ENDBRANCH  19  29
ENDBRANCH  17  19
ENDBRANCH  16  17
ENDBRANCH   1  16
TORSDOF 6
ENDMDL
MODEL 5
REMARK VINA RESULT:      -5.7      2.016      6.505
REMARK  Name = ligand_pdbs\5QH.pdb
REMARK  6 active torsions:
REMARK  status: ('A' for Active; 'I' for Inactive)
REMARK    1  A    between atoms: NAT_10  and  CAS_11
REMARK    2  A    between atoms: CAS_11  and  CAB_12
REMARK    3  A    between atoms: CAB_12  and  CAC_14
REMARK    4  A    between atoms: CAC_14  and  NAD_15
REMARK    5  A    between atoms: CAE_16  and  CAG_18
REMARK    6  A    between atoms: CAI_23  and  CAM_24
REMARK                            x       y       z     vdW  Elec       q    Type
REMARK                         _______ _______ _______ _____ _____    ______ ____
ROOT
ATOM      1  NAD 5QH A 702      29.832   2.244   5.199  0.00  0.00    +0.000 NA
ATOM      2  CAE 5QH A 702      29.062   3.157   5.809  0.00  0.00    +0.000 C 
ATOM      3  OAF 5QH A 702      29.083   3.352   7.026  0.00  0.00    +0.000 OA
ENDROOT
BRANCH   2   4
ATOM      4  CAG 5QH A 702      28.209   3.903   4.974  0.00  0.00    +0.000 A 
ATOM      5  CAH 5QH A 702      27.451   4.991   5.440  0.00  0.00    +0.000 A 
ATOM      6  CAL 5QH A 702      28.138   3.565   3.621  0.00  0.00    +0.000 A 
ATOM      7  CAK 5QH A 702      27.320   4.271   2.739  0.00  0.00    +0.000 A 
ATOM      8  CAJ 5QH A 702      26.568   5.340   3.210  0.00  0.00    +0.000 A 
ATOM      9  CAI 5QH A 702      26.630   5.704   4.553  0.00  0.00    +0.000 A 
BRANCH   9  10
ATOM     10  CAM 5QH A 702      25.855   6.782   4.971  0.00  0.00    +0.000 A 
ATOM     11  NAN 5QH A 702      26.391   7.705   5.808  0.00  0.00    +0.000 NA
ATOM     12  CAO 5QH A 702      25.622   8.802   6.245  0.00  0.00    +0.000 A 
ATOM     13  CAP 5QH A 702      24.299   8.907   5.807  0.00  0.00    +0.000 A 
ATOM     14  CAQ 5QH A 702      23.741   7.962   4.943  0.00  0.00    +0.000 A 
ATOM     15  CAR 5QH A 702      24.525   6.891   4.520  0.00  0.00    +0.000 A 
ENDBRANCH   9  10
ENDBRANCH   2   4
BRANCH   1  16
ATOM     16  CAC 5QH A 702      30.704   1.301   5.902  0.00  0.00    +0.000 C 
BRANCH  16  17
ATOM     17  CAB 5QH A 702      29.700   0.258   6.379  0.00  0.00    +0.000 C 
ATOM     18  OAA 5QH A 702      30.081  -0.276   7.625  0.00  0.00    +0.000 OA
BRANCH  17  19
ATOM     19  CAS 5QH A 702      29.574  -0.890   5.339  0.00  0.00    +0.000 C 
BRANCH  19  29
ATOM     20  CAU 5QH A 702      28.502  -0.325   3.232  0.00  0.00    +0.000 C 
ATOM     21  CAV 5QH A 702      27.212  -0.284   2.530  0.00  0.00    +0.000 C 
ATOM     22  CAW 5QH A 702      26.305   0.533   3.231  0.00  0.00    +0.000 A 
ATOM     23  CBC 5QH A 702      25.283   1.190   2.523  0.00  0.00    +0.000 A 
ATOM     24  CBB 5QH A 702      24.363   2.016   3.170  0.00  0.00    +0.000 A 
ATOM     25  CBA 5QH A 702      24.440   2.184   4.557  0.00  0.00    +0.000 A 
ATOM     26  CAZ 5QH A 702      25.445   1.537   5.278  0.00  0.00    +0.000 A 
ATOM     27  CAX 5QH A 702      26.380   0.717   4.626  0.00  0.00    +0.000 A 
ATOM     28  CAY 5QH A 702      27.369   0.105   5.400  0.00  0.00    +0.000 C 
ATOM     29  NAT 5QH A 702      28.299  -0.733   4.621  0.00  0.00    +0.000 NA
ENDBRANCH  19  29
ENDBRANCH  17  19
ENDBRANCH  16  17
ENDBRANCH   1  16
TORSDOF 6
ENDMDL
MODEL 6
REMARK VINA RESULT:      -5.7      2.289      6.077
REMARK  Name = ligand_pdbs\5QH.pdb
REMARK  6 active torsions:
REMARK  status: ('A' for Active; 'I' for Inactive)
REMARK    1  A    between atoms: NAT_10  and  CAS_11
REMARK    2  A    between atoms: CAS_11  and  CAB_12
REMARK    3  A    between atoms: CAB_12  and  CAC_14
REMARK    4  A    between atoms: CAC_14  and  NAD_15
REMARK    5  A    between atoms: CAE_16  and  CAG_18
REMARK    6  A    between atoms: CAI_23  and  CAM_24
REMARK                            x       y       z     vdW  Elec       q    Type
REMARK                         _______ _______ _______ _____ _____    ______ ____
ROOT
ATOM      1  NAD 5QH A 702      28.679   0.151   5.260  0.00  0.00    +0.000 NA
ATOM      2  CAE 5QH A 702      29.100   1.231   4.585  0.00  0.00    +0.000 C 
ATOM      3  OAF 5QH A 702      29.634   1.169   3.478  0.00  0.00    +0.000 OA
ENDROOT
BRANCH   2   4
ATOM      4  CAG 5QH A 702      28.893   2.472   5.218  0.00  0.00    +0.000 A 
ATOM      5  CAH 5QH A 702      28.060   3.469   4.682  0.00  0.00    +0.000 A 
ATOM      6  CAL 5QH A 702      29.521   2.708   6.443  0.00  0.00    +0.000 A 
ATOM      7  CAK 5QH A 702      29.349   3.912   7.126  0.00  0.00    +0.000 A 
ATOM      8  CAJ 5QH A 702      28.529   4.894   6.585  0.00  0.00    +0.000 A 
ATOM      9  CAI 5QH A 702      27.884   4.679   5.370  0.00  0.00    +0.000 A 
BRANCH   9  10
ATOM     10  CAM 5QH A 702      27.076   5.697   4.874  0.00  0.00    +0.000 A 
ATOM     11  NAN 5QH A 702      26.869   6.810   5.620  0.00  0.00    +0.000 NA
ATOM     12  CAO 5QH A 702      26.052   7.851   5.138  0.00  0.00    +0.000 A 
ATOM     13  CAP 5QH A 702      25.453   7.703   3.883  0.00  0.00    +0.000 A 
ATOM     14  CAQ 5QH A 702      25.662   6.561   3.107  0.00  0.00    +0.000 A 
ATOM     15  CAR 5QH A 702      26.481   5.550   3.605  0.00  0.00    +0.000 A 
ENDBRANCH   9  10
ENDBRANCH   2   4
BRANCH   1  16
ATOM     16  CAC 5QH A 702      28.897  -1.229   4.820  0.00  0.00    +0.000 C 
BRANCH  16  17
ATOM     17  CAB 5QH A 702      27.469  -1.699   4.576  0.00  0.00    +0.000 C 
ATOM     18  OAA 5QH A 702      27.390  -3.106   4.591  0.00  0.00    +0.000 OA
BRANCH  17  19
ATOM     19  CAS 5QH A 702      26.947  -1.165   3.214  0.00  0.00    +0.000 C 
BRANCH  19  29
ATOM     20  CAU 5QH A 702      25.691   0.750   2.399  0.00  0.00    +0.000 C 
ATOM     21  CAV 5QH A 702      24.508   1.586   2.647  0.00  0.00    +0.000 C 
ATOM     22  CAW 5QH A 702      24.579   2.157   3.932  0.00  0.00    +0.000 A 
ATOM     23  CBC 5QH A 702      23.941   3.386   4.175  0.00  0.00    +0.000 A 
ATOM     24  CBB 5QH A 702      23.987   3.996   5.429  0.00  0.00    +0.000 A 
ATOM     25  CBA 5QH A 702      24.664   3.367   6.481  0.00  0.00    +0.000 A 
ATOM     26  CAZ 5QH A 702      25.300   2.144   6.260  0.00  0.00    +0.000 A 
ATOM     27  CAX 5QH A 702      25.266   1.536   4.995  0.00  0.00    +0.000 A 
ATOM     28  CAY 5QH A 702      25.931   0.317   4.834  0.00  0.00    +0.000 C 
ATOM     29  NAT 5QH A 702      25.835  -0.236   3.470  0.00  0.00    +0.000 NA
ENDBRANCH  19  29
ENDBRANCH  17  19
ENDBRANCH  16  17
ENDBRANCH   1  16
TORSDOF 6
ENDMDL
MODEL 7
REMARK VINA RESULT:      -4.7      1.805      2.960
REMARK  Name = ligand_pdbs\5QH.pdb
REMARK  6 active torsions:
REMARK  status: ('A' for Active; 'I' for Inactive)
REMARK    1  A    between atoms: NAT_10  and  CAS_11
REMARK    2  A    between atoms: CAS_11  and  CAB_12
REMARK    3  A    between atoms: CAB_12  and  CAC_14
REMARK    4  A    between atoms: CAC_14  and  NAD_15
REMARK    5  A    between atoms: CAE_16  and  CAG_18
REMARK    6  A    between atoms: CAI_23  and  CAM_24
REMARK                            x       y       z     vdW  Elec       q    Type
REMARK                         _______ _______ _______ _____ _____    ______ ____
ROOT
ATOM      1  NAD 5QH A 702      26.094   4.615   5.484  0.00  0.00    +0.000 NA
ATOM      2  CAE 5QH A 702      27.304   4.665   4.909  0.00  0.00    +0.000 C 
ATOM      3  OAF 5QH A 702      27.616   5.509   4.067  0.00  0.00    +0.000 OA
ENDROOT
BRANCH   2   4
ATOM      4  CAG 5QH A 702      28.226   3.686   5.325  0.00  0.00    +0.000 A 
ATOM      5  CAH 5QH A 702      28.540   2.559   4.546  0.00  0.00    +0.000 A 
ATOM      6  CAL 5QH A 702      28.875   3.859   6.549  0.00  0.00    +0.000 A 
ATOM      7  CAK 5QH A 702      29.807   2.930   7.013  0.00  0.00    +0.000 A 
ATOM      8  CAJ 5QH A 702      30.106   1.815   6.240  0.00  0.00    +0.000 A 
ATOM      9  CAI 5QH A 702      29.479   1.626   5.011  0.00  0.00    +0.000 A 
BRANCH   9  10
ATOM     10  CAM 5QH A 702      29.815   0.491   4.278  0.00  0.00    +0.000 A 
ATOM     11  NAN 5QH A 702      30.173  -0.643   4.929  0.00  0.00    +0.000 NA
ATOM     12  CAO 5QH A 702      30.520  -1.801   4.206  0.00  0.00    +0.000 A 
ATOM     13  CAP 5QH A 702      30.498  -1.748   2.809  0.00  0.00    +0.000 A 
ATOM     14  CAQ 5QH A 702      30.128  -0.585   2.131  0.00  0.00    +0.000 A 
ATOM     15  CAR 5QH A 702      29.782   0.544   2.870  0.00  0.00    +0.000 A 
ENDBRANCH   9  10
ENDBRANCH   2   4
BRANCH   1  16
ATOM     16  CAC 5QH A 702      24.969   5.476   5.110  0.00  0.00    +0.000 C 
BRANCH  16  17
ATOM     17  CAB 5QH A 702      24.042   4.483   4.422  0.00  0.00    +0.000 C 
ATOM     18  OAA 5QH A 702      22.720   4.968   4.384  0.00  0.00    +0.000 OA
BRANCH  17  19
ATOM     19  CAS 5QH A 702      24.071   3.114   5.156  0.00  0.00    +0.000 C 
BRANCH  19  29
ATOM     20  CAU 5QH A 702      24.588   1.755   3.208  0.00  0.00    +0.000 C 
ATOM     21  CAV 5QH A 702      25.651   0.987   2.544  0.00  0.00    +0.000 C 
ATOM     22  CAW 5QH A 702      26.122  -0.028   3.399  0.00  0.00    +0.000 A 
ATOM     23  CBC 5QH A 702      26.659  -1.201   2.842  0.00  0.00    +0.000 A 
ATOM     24  CBB 5QH A 702      27.133  -2.239   3.646  0.00  0.00    +0.000 A 
ATOM     25  CBA 5QH A 702      27.094  -2.109   5.039  0.00  0.00    +0.000 A 
ATOM     26  CAZ 5QH A 702      26.567  -0.949   5.610  0.00  0.00    +0.000 A 
ATOM     27  CAX 5QH A 702      26.078   0.090   4.803  0.00  0.00    +0.000 A 
ATOM     28  CAY 5QH A 702      25.552   1.220   5.434  0.00  0.00    +0.000 C 
ATOM     29  NAT 5QH A 702      25.065   2.251   4.498  0.00  0.00    +0.000 NA
ENDBRANCH  19  29
ENDBRANCH  17  19
ENDBRANCH  16  17
ENDBRANCH   1  16
TORSDOF 6
ENDMDL
MODEL 8
REMARK VINA RESULT:      -4.5      2.205      7.013
REMARK  Name = ligand_pdbs\5QH.pdb
REMARK  6 active torsions:
REMARK  status: ('A' for Active; 'I' for Inactive)
REMARK    1  A    between atoms: NAT_10  and  CAS_11
REMARK    2  A    between atoms: CAS_11  and  CAB_12
REMARK    3  A    between atoms: CAB_12  and  CAC_14
REMARK    4  A    between atoms: CAC_14  and  NAD_15
REMARK    5  A    between atoms: CAE_16  and  CAG_18
REMARK    6  A    between atoms: CAI_23  and  CAM_24
REMARK                            x       y       z     vdW  Elec       q    Type
REMARK                         _______ _______ _______ _____ _____    ______ ____
ROOT
ATOM      1  NAD 5QH A 702      26.718   0.046   3.093  0.00  0.00    +0.000 NA
ATOM      2  CAE 5QH A 702      25.983   1.092   2.689  0.00  0.00    +0.000 C 
ATOM      3  OAF 5QH A 702      25.655   1.273   1.516  0.00  0.00    +0.000 OA
ENDROOT
BRANCH   2   4
ATOM      4  CAG 5QH A 702      25.590   1.996   3.696  0.00  0.00    +0.000 A 
ATOM      5  CAH 5QH A 702      25.752   3.387   3.572  0.00  0.00    +0.000 A 
ATOM      6  CAL 5QH A 702      24.990   1.489   4.850  0.00  0.00    +0.000 A 
ATOM      7  CAK 5QH A 702      24.569   2.331   5.878  0.00  0.00    +0.000 A 
ATOM      8  CAJ 5QH A 702      24.739   3.704   5.752  0.00  0.00    +0.000 A 
ATOM      9  CAI 5QH A 702      25.326   4.235   4.605  0.00  0.00    +0.000 A 
BRANCH   9  10
ATOM     10  CAM 5QH A 702      25.473   5.617   4.531  0.00  0.00    +0.000 A 
ATOM     11  NAN 5QH A 702      26.288   6.250   5.410  0.00  0.00    +0.000 NA
ATOM     12  CAO 5QH A 702      26.448   7.649   5.353  0.00  0.00    +0.000 A 
ATOM     13  CAP 5QH A 702      25.740   8.364   4.383  0.00  0.00    +0.000 A 
ATOM     14  CAQ 5QH A 702      24.898   7.719   3.474  0.00  0.00    +0.000 A 
ATOM     15  CAR 5QH A 702      24.764   6.334   3.546  0.00  0.00    +0.000 A 
ENDBRANCH   9  10
ENDBRANCH   2   4
BRANCH   1  16
ATOM     16  CAC 5QH A 702      27.309  -0.942   2.188  0.00  0.00    +0.000 C 
BRANCH  16  17
ATOM     17  CAB 5QH A 702      27.752  -2.023   3.166  0.00  0.00    +0.000 C 
ATOM     18  OAA 5QH A 702      26.997  -1.969   4.354  0.00  0.00    +0.000 OA
BRANCH  17  19
ATOM     19  CAS 5QH A 702      29.261  -1.865   3.503  0.00  0.00    +0.000 C 
BRANCH  19  29
ATOM     20  CAU 5QH A 702      28.416  -1.034   5.626  0.00  0.00    +0.000 C 
ATOM     21  CAV 5QH A 702      28.662  -0.066   6.704  0.00  0.00    +0.000 C 
ATOM     22  CAW 5QH A 702      28.693   1.242   6.184  0.00  0.00    +0.000 A 
ATOM     23  CBC 5QH A 702      28.326   2.319   7.010  0.00  0.00    +0.000 A 
ATOM     24  CBB 5QH A 702      28.333   3.632   6.540  0.00  0.00    +0.000 A 
ATOM     25  CBA 5QH A 702      28.733   3.895   5.225  0.00  0.00    +0.000 A 
ATOM     26  CAZ 5QH A 702      29.105   2.839   4.391  0.00  0.00    +0.000 A 
ATOM     27  CAX 5QH A 702      29.085   1.515   4.858  0.00  0.00    +0.000 A 
ATOM     28  CAY 5QH A 702      29.457   0.501   3.973  0.00  0.00    +0.000 C 
ATOM     29  NAT 5QH A 702      29.401  -0.851   4.560  0.00  0.00    +0.000 NA
ENDBRANCH  19  29
ENDBRANCH  17  19
ENDBRANCH  16  17
ENDBRANCH   1  16
TORSDOF 6
ENDMDL
MODEL 9
REMARK VINA RESULT:      -4.4      1.331      3.766
REMARK  Name = ligand_pdbs\5QH.pdb
REMARK  6 active torsions:
REMARK  status: ('A' for Active; 'I' for Inactive)
REMARK    1  A    between atoms: NAT_10  and  CAS_11
REMARK    2  A    between atoms: CAS_11  and  CAB_12
REMARK    3  A    between atoms: CAB_12  and  CAC_14
REMARK    4  A    between atoms: CAC_14  and  NAD_15
REMARK    5  A    between atoms: CAE_16  and  CAG_18
REMARK    6  A    between atoms: CAI_23  and  CAM_24
REMARK                            x       y       z     vdW  Elec       q    Type
REMARK                         _______ _______ _______ _____ _____    ______ ____
ROOT
ATOM      1  NAD 5QH A 702      24.292   5.011   4.905  0.00  0.00    +0.000 NA
ATOM      2  CAE 5QH A 702      24.546   3.846   5.519  0.00  0.00    +0.000 C 
ATOM      3  OAF 5QH A 702      24.709   3.746   6.736  0.00  0.00    +0.000 OA
ENDROOT
BRANCH   2   4
ATOM      4  CAG 5QH A 702      24.618   2.713   4.686  0.00  0.00    +0.000 A 
ATOM      5  CAH 5QH A 702      25.593   1.713   4.846  0.00  0.00    +0.000 A 
ATOM      6  CAL 5QH A 702      23.661   2.563   3.680  0.00  0.00    +0.000 A 
ATOM      7  CAK 5QH A 702      23.670   1.458   2.829  0.00  0.00    +0.000 A 
ATOM      8  CAJ 5QH A 702      24.642   0.479   2.989  0.00  0.00    +0.000 A 
ATOM      9  CAI 5QH A 702      25.601   0.600   3.992  0.00  0.00    +0.000 A 
BRANCH   9  10
ATOM     10  CAM 5QH A 702      26.552  -0.410   4.107  0.00  0.00    +0.000 A 
ATOM     11  NAN 5QH A 702      27.285  -0.764   3.023  0.00  0.00    +0.000 NA
ATOM     12  CAO 5QH A 702      28.250  -1.785   3.117  0.00  0.00    +0.000 A 
ATOM     13  CAP 5QH A 702      28.423  -2.430   4.346  0.00  0.00    +0.000 A 
ATOM     14  CAQ 5QH A 702      27.673  -2.070   5.468  0.00  0.00    +0.000 A 
ATOM     15  CAR 5QH A 702      26.731  -1.051   5.349  0.00  0.00    +0.000 A 
ENDBRANCH   9  10
ENDBRANCH   2   4
BRANCH   1  16
ATOM     16  CAC 5QH A 702      24.284   6.311   5.579  0.00  0.00    +0.000 C 
BRANCH  16  17
ATOM     17  CAB 5QH A 702      25.734   6.746   5.416  0.00  0.00    +0.000 C 
ATOM     18  OAA 5QH A 702      25.911   8.081   5.831  0.00  0.00    +0.000 OA
BRANCH  17  19
ATOM     19  CAS 5QH A 702      26.183   6.599   3.936  0.00  0.00    +0.000 C 
BRANCH  19  29
ATOM     20  CAU 5QH A 702      26.875   4.460   3.010  0.00  0.00    +0.000 C 
ATOM     21  CAV 5QH A 702      28.005   3.528   2.890  0.00  0.00    +0.000 C 
ATOM     22  CAW 5QH A 702      28.449   3.138   4.168  0.00  0.00    +0.000 A 
ATOM     23  CBC 5QH A 702      29.061   1.883   4.329  0.00  0.00    +0.000 A 
ATOM     24  CBB 5QH A 702      29.512   1.447   5.576  0.00  0.00    +0.000 A 
ATOM     25  CBA 5QH A 702      29.375   2.281   6.692  0.00  0.00    +0.000 A 
ATOM     26  CAZ 5QH A 702      28.773   3.533   6.550  0.00  0.00    +0.000 A 
ATOM     27  CAX 5QH A 702      28.306   3.967   5.299  0.00  0.00    +0.000 A 
ATOM     28  CAY 5QH A 702      27.703   5.224   5.224  0.00  0.00    +0.000 C 
ATOM     29  NAT 5QH A 702      27.247   5.584   3.868  0.00  0.00    +0.000 NA
ENDBRANCH  19  29
ENDBRANCH  17  19
ENDBRANCH  16  17
ENDBRANCH   1  16
TORSDOF 6
ENDMDL
