MODEL 1
REMARK VINA RESULT:      -8.7      0.000      0.000
REMARK  Name = ligand_pdbs\5QK.pdb
REMARK  7 active torsions:
REMARK  status: ('A' for Active; 'I' for Inactive)
REMARK    1  A    between atoms: NAT_10  and  CAS_11
REMARK    2  A    between atoms: CAS_11  and  CAB_12
REMARK    3  A    between atoms: CAB_12  and  CAC_14
REMARK    4  A    between atoms: CAC_14  and  NAD_15
REMARK    5  A    between atoms: CAE_16  and  CAG_18
REMARK    6  A    between atoms: CAG_18  and  OAH_19
REMARK    7  A    between atoms: OAH_19  and  CAI_20
REMARK                            x       y       z     vdW  Elec       q    Type
REMARK                         _______ _______ _______ _____ _____    ______ ____
ROOT
ATOM      1  NAD 5QK A 702      24.257   7.486   5.068  0.00  0.00    +0.000 NA
ATOM      2  CAE 5QK A 702      25.141   8.298   5.749  0.00  0.00    +0.000 C 
ATOM      3  OAF 5QK A 702      26.334   8.047   5.967  0.00  0.00    +0.000 OA
ENDROOT
BRANCH   1   4
ATOM      4  CAC 5QK A 702      24.627   6.186   4.440  0.00  0.00    +0.000 C 
BRANCH   4   5
ATOM      5  CAB 5QK A 702      23.892   4.991   5.124  0.00  0.00    +0.000 C 
ATOM      6  OAA 5QK A 702      22.885   4.468   4.268  0.00  0.00    +0.000 OA
BRANCH   5   7
ATOM      7  CAS 5QK A 702      24.846   3.817   5.541  0.00  0.00    +0.000 C 
BRANCH   7  17
ATOM      8  CAU 5QK A 702      24.800   1.885   4.098  0.00  0.00    +0.000 C 
ATOM      9  CAV 5QK A 702      25.450   1.097   2.971  0.00  0.00    +0.000 C 
ATOM     10  CAW 5QK A 702      26.823   0.938   3.220  0.00  0.00    +0.000 A 
ATOM     11  CBC 5QK A 702      27.505  -0.100   2.566  0.00  0.00    +0.000 A 
ATOM     12  CBB 5QK A 702      28.867  -0.285   2.795  0.00  0.00    +0.000 A 
ATOM     13  CBA 5QK A 702      29.561   0.564   3.659  0.00  0.00    +0.000 A 
ATOM     14  CAZ 5QK A 702      28.902   1.599   4.321  0.00  0.00    +0.000 A 
ATOM     15  CAX 5QK A 702      27.531   1.792   4.106  0.00  0.00    +0.000 A 
ATOM     16  CAY 5QK A 702      26.919   2.844   4.793  0.00  0.00    +0.000 C 
ATOM     17  NAT 5QK A 702      25.525   3.134   4.408  0.00  0.00    +0.000 NA
ENDBRANCH   7  17
ENDBRANCH   5   7
ENDBRANCH   4   5
ENDBRANCH   1   4
BRANCH   2  18
ATOM     18  CAG 5QK A 702      24.570   9.622   6.284  0.00  0.00    +0.000 C 
BRANCH  18  19
ATOM     19  OAH 5QK A 702      24.513   9.616   7.723  0.00  0.00    +0.000 OA
BRANCH  19  20
ATOM     20  CAI 5QK A 702      24.043  10.801   8.172  0.00  0.00    +0.000 A 
ATOM     21  CAJ 5QK A 702      23.812  10.900   9.551  0.00  0.00    +0.000 A 
ATOM     22  NAK 5QK A 702      24.040   9.853  10.381  0.00  0.00    +0.000 NA
ATOM     23  CAL 5QK A 702      23.785   9.967  11.774  0.00  0.00    +0.000 A 
ATOM     24  CAM 5QK A 702      23.295  11.166  12.304  0.00  0.00    +0.000 A 
ATOM     25  CAN 5QK A 702      23.065  12.243  11.444  0.00  0.00    +0.000 A 
ATOM     26  CAO 5QK A 702      23.322  12.109  10.073  0.00  0.00    +0.000 A 
ATOM     27  CAP 5QK A 702      23.091  13.180   9.203  0.00  0.00    +0.000 A 
ATOM     28  CAQ 5QK A 702      23.333  13.066   7.830  0.00  0.00    +0.000 A 
ATOM     29  CAR 5QK A 702      23.812  11.871   7.304  0.00  0.00    +0.000 A 
ENDBRANCH  19  20
ENDBRANCH  18  19
ENDBRANCH   2  18
TORSDOF 7
ENDMDL
MODEL 2
REMARK VINA RESULT:      -7.9      4.674      8.678
REMARK  Name = ligand_pdbs\5QK.pdb
REMARK  7 active torsions:
REMARK  status: ('A' for Active; 'I' for Inactive)
REMARK    1  A    between atoms: NAT_10  and  CAS_11
REMARK    2  A    between atoms: CAS_11  and  CAB_12
REMARK    3  A    between atoms: CAB_12  and  CAC_14
REMARK    4  A    between atoms: CAC_14  and  NAD_15
REMARK    5  A    between atoms: CAE_16  and  CAG_18
REMARK    6  A    between atoms: CAG_18  and  OAH_19
REMARK    7  A    between atoms: OAH_19  and  CAI_20
REMARK                            x       y       z     vdW  Elec       q    Type
REMARK                         _______ _______ _______ _____ _____    ______ ____
ROOT
ATOM      1  NAD 5QK A 702      23.989   5.155   4.398  0.00  0.00    +0.000 NA
ATOM      2  CAE 5QK A 702      24.156   4.097   5.268  0.00  0.00    +0.000 C 
ATOM      3  OAF 5QK A 702      24.608   4.169   6.418  0.00  0.00    +0.000 OA
ENDROOT
BRANCH   1   4
ATOM      4  CAC 5QK A 702      24.287   6.574   4.740  0.00  0.00    +0.000 C 
BRANCH   4   5
ATOM      5  CAB 5QK A 702      25.757   6.953   4.378  0.00  0.00    +0.000 C 
ATOM      6  OAA 5QK A 702      25.883   8.359   4.208  0.00  0.00    +0.000 OA
BRANCH   5   7
ATOM      7  CAS 5QK A 702      26.811   6.487   5.443  0.00  0.00    +0.000 C 
BRANCH   7  17
ATOM      8  CAU 5QK A 702      27.187   4.720   3.844  0.00  0.00    +0.000 C 
ATOM      9  CAV 5QK A 702      28.114   3.645   3.300  0.00  0.00    +0.000 C 
ATOM     10  CAW 5QK A 702      28.622   2.866   4.353  0.00  0.00    +0.000 A 
ATOM     11  CBC 5QK A 702      29.120   1.587   4.057  0.00  0.00    +0.000 A 
ATOM     12  CBB 5QK A 702      29.628   0.788   5.080  0.00  0.00    +0.000 A 
ATOM     13  CBA 5QK A 702      29.659   1.258   6.395  0.00  0.00    +0.000 A 
ATOM     14  CAZ 5QK A 702      29.166   2.524   6.710  0.00  0.00    +0.000 A 
ATOM     15  CAX 5QK A 702      28.645   3.334   5.693  0.00  0.00    +0.000 A 
ATOM     16  CAY 5QK A 702      28.166   4.594   6.062  0.00  0.00    +0.000 C 
ATOM     17  NAT 5QK A 702      27.796   5.488   4.949  0.00  0.00    +0.000 NA
ENDBRANCH   7  17
ENDBRANCH   5   7
ENDBRANCH   4   5
ENDBRANCH   1   4
BRANCH   2  18
ATOM     18  CAG 5QK A 702      23.748   2.712   4.735  0.00  0.00    +0.000 C 
BRANCH  18  19
ATOM     19  OAH 5QK A 702      24.705   1.708   5.123  0.00  0.00    +0.000 OA
BRANCH  19  20
ATOM     20  CAI 5QK A 702      25.312   1.200   4.027  0.00  0.00    +0.000 A 
ATOM     21  CAJ 5QK A 702      26.084   0.046   4.218  0.00  0.00    +0.000 A 
ATOM     22  NAK 5QK A 702      26.218  -0.518   5.442  0.00  0.00    +0.000 NA
ATOM     23  CAL 5QK A 702      27.017  -1.679   5.619  0.00  0.00    +0.000 A 
ATOM     24  CAM 5QK A 702      27.675  -2.253   4.526  0.00  0.00    +0.000 A 
ATOM     25  CAN 5QK A 702      27.532  -1.669   3.265  0.00  0.00    +0.000 A 
ATOM     26  CAO 5QK A 702      26.739  -0.524   3.112  0.00  0.00    +0.000 A 
ATOM     27  CAP 5QK A 702      26.591   0.071   1.855  0.00  0.00    +0.000 A 
ATOM     28  CAQ 5QK A 702      25.812   1.219   1.682  0.00  0.00    +0.000 A 
ATOM     29  CAR 5QK A 702      25.165   1.793   2.771  0.00  0.00    +0.000 A 
ENDBRANCH  19  20
ENDBRANCH  18  19
ENDBRANCH   2  18
TORSDOF 7
ENDMDL
MODEL 3
REMARK VINA RESULT:      -7.4      4.763      7.484
REMARK  Name = ligand_pdbs\5QK.pdb
REMARK  7 active torsions:
REMARK  status: ('A' for Active; 'I' for Inactive)
REMARK    1  A    between atoms: NAT_10  and  CAS_11
REMARK    2  A    between atoms: CAS_11  and  CAB_12
REMARK    3  A    between atoms: CAB_12  and  CAC_14
REMARK    4  A    between atoms: CAC_14  and  NAD_15
REMARK    5  A    between atoms: CAE_16  and  CAG_18
REMARK    6  A    between atoms: CAG_18  and  OAH_19
REMARK    7  A    between atoms: OAH_19  and  CAI_20
REMARK                            x       y       z     vdW  Elec       q    Type
REMARK                         _______ _______ _______ _____ _____    ______ ____
ROOT
ATOM      1  NAD 5QK A 702      29.750   0.870   4.473  0.00  0.00    +0.000 NA
ATOM      2  CAE 5QK A 702      29.695   1.488   5.706  0.00  0.00    +0.000 C 
ATOM      3  OAF 5QK A 702      29.435   0.934   6.782  0.00  0.00    +0.000 OA
ENDROOT
BRANCH   1   4
ATOM      4  CAC 5QK A 702      29.551  -0.591   4.259  0.00  0.00    +0.000 C 
BRANCH   4   5
ATOM      5  CAB 5QK A 702      28.085  -0.911   3.830  0.00  0.00    +0.000 C 
ATOM      6  OAA 5QK A 702      28.030  -2.137   3.114  0.00  0.00    +0.000 OA
BRANCH   5   7
ATOM      7  CAS 5QK A 702      27.078  -0.994   5.031  0.00  0.00    +0.000 C 
BRANCH   7  17
ATOM      8  CAU 5QK A 702      25.715   0.196   3.436  0.00  0.00    +0.000 C 
ATOM      9  CAV 5QK A 702      24.480   1.042   3.167  0.00  0.00    +0.000 C 
ATOM     10  CAW 5QK A 702      24.405   2.097   4.091  0.00  0.00    +0.000 A 
ATOM     11  CBC 5QK A 702      23.626   3.219   3.763  0.00  0.00    +0.000 A 
ATOM     12  CBB 5QK A 702      23.535   4.283   4.657  0.00  0.00    +0.000 A 
ATOM     13  CBA 5QK A 702      24.200   4.236   5.883  0.00  0.00    +0.000 A 
ATOM     14  CAZ 5QK A 702      24.982   3.133   6.227  0.00  0.00    +0.000 A 
ATOM     15  CAX 5QK A 702      25.089   2.060   5.334  0.00  0.00    +0.000 A 
ATOM     16  CAY 5QK A 702      25.883   0.979   5.727  0.00  0.00    +0.000 C 
ATOM     17  NAT 5QK A 702      25.829  -0.207   4.852  0.00  0.00    +0.000 NA
ENDBRANCH   7  17
ENDBRANCH   5   7
ENDBRANCH   4   5
ENDBRANCH   1   4
BRANCH   2  18
ATOM     18  CAG 5QK A 702      29.974   3.001   5.718  0.00  0.00    +0.000 C 
BRANCH  18  19
ATOM     19  OAH 5QK A 702      28.779   3.743   6.028  0.00  0.00    +0.000 OA
BRANCH  19  20
ATOM     20  CAI 5QK A 702      28.089   4.003   4.895  0.00  0.00    +0.000 A 
ATOM     21  CAJ 5QK A 702      27.417   5.231   4.840  0.00  0.00    +0.000 A 
ATOM     22  NAK 5QK A 702      27.454   6.102   5.877  0.00  0.00    +0.000 NA
ATOM     23  CAL 5QK A 702      26.754   7.336   5.809  0.00  0.00    +0.000 A 
ATOM     24  CAM 5QK A 702      26.018   7.666   4.665  0.00  0.00    +0.000 A 
ATOM     25  CAN 5QK A 702      25.985   6.765   3.597  0.00  0.00    +0.000 A 
ATOM     26  CAO 5QK A 702      26.683   5.552   3.685  0.00  0.00    +0.000 A 
ATOM     27  CAP 5QK A 702      26.653   4.642   2.624  0.00  0.00    +0.000 A 
ATOM     28  CAQ 5QK A 702      27.335   3.423   2.694  0.00  0.00    +0.000 A 
ATOM     29  CAR 5QK A 702      28.059   3.094   3.835  0.00  0.00    +0.000 A 
ENDBRANCH  19  20
ENDBRANCH  18  19
ENDBRANCH   2  18
TORSDOF 7
ENDMDL
MODEL 4
REMARK VINA RESULT:      -6.6      4.774      9.380
REMARK  Name = ligand_pdbs\5QK.pdb
REMARK  7 active torsions:
REMARK  status: ('A' for Active; 'I' for Inactive)
REMARK    1  A    between atoms: NAT_10  and  CAS_11
REMARK    2  A    between atoms: CAS_11  and  CAB_12
REMARK    3  A    between atoms: CAB_12  and  CAC_14
REMARK    4  A    between atoms: CAC_14  and  NAD_15
REMARK    5  A    between atoms: CAE_16  and  CAG_18
REMARK    6  A    between atoms: CAG_18  and  OAH_19
REMARK    7  A    between atoms: OAH_19  and  CAI_20
REMARK                            x       y       z     vdW  Elec       q    Type
REMARK                         _______ _______ _______ _____ _____    ______ ____
ROOT
ATOM      1  NAD 5QK A 702      27.766   4.722   6.085  0.00  0.00    +0.000 NA
ATOM      2  CAE 5QK A 702      27.827   3.356   6.269  0.00  0.00    +0.000 C 
ATOM      3  OAF 5QK A 702      26.876   2.621   6.563  0.00  0.00    +0.000 OA
ENDROOT
BRANCH   1   4
ATOM      4  CAC 5QK A 702      26.511   5.521   6.166  0.00  0.00    +0.000 C 
BRANCH   4   5
ATOM      5  CAB 5QK A 702      26.659   6.892   5.434  0.00  0.00    +0.000 C 
ATOM      6  OAA 5QK A 702      27.987   7.065   4.961  0.00  0.00    +0.000 OA
BRANCH   5   7
ATOM      7  CAS 5QK A 702      25.676   7.071   4.224  0.00  0.00    +0.000 C 
BRANCH   7  17
ATOM      8  CAU 5QK A 702      24.211   5.280   4.906  0.00  0.00    +0.000 C 
ATOM      9  CAV 5QK A 702      23.512   3.976   4.553  0.00  0.00    +0.000 C 
ATOM     10  CAW 5QK A 702      24.426   3.076   3.982  0.00  0.00    +0.000 A 
ATOM     11  CBC 5QK A 702      24.113   1.707   3.995  0.00  0.00    +0.000 A 
ATOM     12  CBB 5QK A 702      25.001   0.789   3.439  0.00  0.00    +0.000 A 
ATOM     13  CBA 5QK A 702      26.193   1.222   2.854  0.00  0.00    +0.000 A 
ATOM     14  CAZ 5QK A 702      26.524   2.576   2.834  0.00  0.00    +0.000 A 
ATOM     15  CAX 5QK A 702      25.645   3.510   3.396  0.00  0.00    +0.000 A 
ATOM     16  CAY 5QK A 702      26.023   4.854   3.348  0.00  0.00    +0.000 C 
ATOM     17  NAT 5QK A 702      24.999   5.823   3.781  0.00  0.00    +0.000 NA
ENDBRANCH   7  17
ENDBRANCH   5   7
ENDBRANCH   4   5
ENDBRANCH   1   4
BRANCH   2  18
ATOM     18  CAG 5QK A 702      29.214   2.712   6.098  0.00  0.00    +0.000 C 
BRANCH  18  19
ATOM     19  OAH 5QK A 702      29.141   1.281   6.245  0.00  0.00    +0.000 OA
BRANCH  19  20
ATOM     20  CAI 5QK A 702      29.210   0.687   5.032  0.00  0.00    +0.000 A 
ATOM     21  CAJ 5QK A 702      28.427  -0.461   4.853  0.00  0.00    +0.000 A 
ATOM     22  NAK 5QK A 702      27.651  -0.948   5.851  0.00  0.00    +0.000 NA
ATOM     23  CAL 5QK A 702      26.875  -2.122   5.655  0.00  0.00    +0.000 A 
ATOM     24  CAM 5QK A 702      26.904  -2.787   4.424  0.00  0.00    +0.000 A 
ATOM     25  CAN 5QK A 702      27.703  -2.278   3.397  0.00  0.00    +0.000 A 
ATOM     26  CAO 5QK A 702      28.461  -1.119   3.612  0.00  0.00    +0.000 A 
ATOM     27  CAP 5QK A 702      29.268  -0.604   2.592  0.00  0.00    +0.000 A 
ATOM     28  CAQ 5QK A 702      30.040   0.546   2.787  0.00  0.00    +0.000 A 
ATOM     29  CAR 5QK A 702      30.016   1.201   4.014  0.00  0.00    +0.000 A 
ENDBRANCH  19  20
ENDBRANCH  18  19
ENDBRANCH   2  18
TORSDOF 7
ENDMDL
MODEL 5
REMARK VINA RESULT:      -6.4      5.369      7.975
REMARK  Name = ligand_pdbs\5QK.pdb
REMARK  7 active torsions:
REMARK  status: ('A' for Active; 'I' for Inactive)
REMARK    1  A    between atoms: NAT_10  and  CAS_11
REMARK    2  A    between atoms: CAS_11  and  CAB_12
REMARK    3  A    between atoms: CAB_12  and  CAC_14
REMARK    4  A    between atoms: CAC_14  and  NAD_15
REMARK    5  A    between atoms: CAE_16  and  CAG_18
REMARK    6  A    between atoms: CAG_18  and  OAH_19
REMARK    7  A    between atoms: OAH_19  and  CAI_20
REMARK                            x       y       z     vdW  Elec       q    Type
REMARK                         _______ _______ _______ _____ _____    ______ ____
ROOT
ATOM      1  NAD 5QK A 702      27.557  -0.102   2.459  0.00  0.00    +0.000 NA
ATOM      2  CAE 5QK A 702      26.394  -0.346   3.161  0.00  0.00    +0.000 C 
ATOM      3  OAF 5QK A 702      26.139  -1.370   3.807  0.00  0.00    +0.000 OA
ENDROOT
BRANCH   1   4
ATOM      4  CAC 5QK A 702      28.720  -1.033   2.419  0.00  0.00    +0.000 C 
BRANCH   4   5
ATOM      5  CAB 5QK A 702      28.921  -1.755   3.788  0.00  0.00    +0.000 C 
ATOM      6  OAA 5QK A 702      29.503  -3.037   3.596  0.00  0.00    +0.000 OA
BRANCH   5   7
ATOM      7  CAS 5QK A 702      29.814  -0.954   4.800  0.00  0.00    +0.000 C 
BRANCH   7  17
ATOM      8  CAU 5QK A 702      30.550   1.162   5.696  0.00  0.00    +0.000 C 
ATOM      9  CAV 5QK A 702      30.294   2.651   5.872  0.00  0.00    +0.000 C 
ATOM     10  CAW 5QK A 702      28.978   2.868   6.311  0.00  0.00    +0.000 A 
ATOM     11  CBC 5QK A 702      28.677   4.083   6.946  0.00  0.00    +0.000 A 
ATOM     12  CBB 5QK A 702      27.381   4.327   7.396  0.00  0.00    +0.000 A 
ATOM     13  CBA 5QK A 702      26.376   3.377   7.206  0.00  0.00    +0.000 A 
ATOM     14  CAZ 5QK A 702      26.655   2.162   6.581  0.00  0.00    +0.000 A 
ATOM     15  CAX 5QK A 702      27.955   1.900   6.131  0.00  0.00    +0.000 A 
ATOM     16  CAY 5QK A 702      28.180   0.668   5.510  0.00  0.00    +0.000 C 
ATOM     17  NAT 5QK A 702      29.506   0.499   4.888  0.00  0.00    +0.000 NA
ENDBRANCH   7  17
ENDBRANCH   5   7
ENDBRANCH   4   5
ENDBRANCH   1   4
BRANCH   2  18
ATOM     18  CAG 5QK A 702      25.329   0.764   3.111  0.00  0.00    +0.000 C 
BRANCH  18  19
ATOM     19  OAH 5QK A 702      25.941   2.060   2.968  0.00  0.00    +0.000 OA
BRANCH  19  20
ATOM     20  CAI 5QK A 702      25.188   2.998   3.586  0.00  0.00    +0.000 A 
ATOM     21  CAJ 5QK A 702      25.830   4.201   3.910  0.00  0.00    +0.000 A 
ATOM     22  NAK 5QK A 702      27.139   4.401   3.624  0.00  0.00    +0.000 NA
ATOM     23  CAL 5QK A 702      27.776   5.622   3.974  0.00  0.00    +0.000 A 
ATOM     24  CAM 5QK A 702      27.054   6.633   4.618  0.00  0.00    +0.000 A 
ATOM     25  CAN 5QK A 702      25.703   6.422   4.908  0.00  0.00    +0.000 A 
ATOM     26  CAO 5QK A 702      25.094   5.211   4.554  0.00  0.00    +0.000 A 
ATOM     27  CAP 5QK A 702      23.744   4.988   4.843  0.00  0.00    +0.000 A 
ATOM     28  CAQ 5QK A 702      23.118   3.783   4.507  0.00  0.00    +0.000 A 
ATOM     29  CAR 5QK A 702      23.840   2.776   3.875  0.00  0.00    +0.000 A 
ENDBRANCH  19  20
ENDBRANCH  18  19
ENDBRANCH   2  18
TORSDOF 7
ENDMDL
MODEL 6
REMARK VINA RESULT:      -6.4      4.629      6.704
REMARK  Name = ligand_pdbs\5QK.pdb
REMARK  7 active torsions:
REMARK  status: ('A' for Active; 'I' for Inactive)
REMARK    1  A    between atoms: NAT_10  and  CAS_11
REMARK    2  A    between atoms: CAS_11  and  CAB_12
REMARK    3  A    between atoms: CAB_12  and  CAC_14
REMARK    4  A    between atoms: CAC_14  and  NAD_15
REMARK    5  A    between atoms: CAE_16  and  CAG_18
REMARK    6  A    between atoms: CAG_18  and  OAH_19
REMARK    7  A    between atoms: OAH_19  and  CAI_20
REMARK                            x       y       z     vdW  Elec       q    Type
REMARK                         _______ _______ _______ _____ _____    ______ ____
ROOT
ATOM      1  NAD 5QK A 702      29.488   2.488   6.762  0.00  0.00    +0.000 NA
ATOM      2  CAE 5QK A 702      28.408   3.034   6.100  0.00  0.00    +0.000 C 
ATOM      3  OAF 5QK A 702      28.417   3.484   4.947  0.00  0.00    +0.000 OA
ENDROOT
BRANCH   1   4
ATOM      4  CAC 5QK A 702      30.838   2.309   6.157  0.00  0.00    +0.000 C 
BRANCH   4   5
ATOM      5  CAB 5QK A 702      31.187   0.798   5.975  0.00  0.00    +0.000 C 
ATOM      6  OAA 5QK A 702      32.279   0.434   6.808  0.00  0.00    +0.000 OA
BRANCH   5   7
ATOM      7  CAS 5QK A 702      29.989  -0.168   6.281  0.00  0.00    +0.000 C 
BRANCH   7  17
ATOM      8  CAU 5QK A 702      29.606   0.289   3.944  0.00  0.00    +0.000 C 
ATOM      9  CAV 5QK A 702      28.735   0.090   2.713  0.00  0.00    +0.000 C 
ATOM     10  CAW 5QK A 702      27.388   0.328   3.029  0.00  0.00    +0.000 A 
ATOM     11  CBC 5QK A 702      26.500   0.631   1.985  0.00  0.00    +0.000 A 
ATOM     12  CBB 5QK A 702      25.157   0.875   2.267  0.00  0.00    +0.000 A 
ATOM     13  CBA 5QK A 702      24.686   0.805   3.580  0.00  0.00    +0.000 A 
ATOM     14  CAZ 5QK A 702      25.553   0.509   4.631  0.00  0.00    +0.000 A 
ATOM     15  CAX 5QK A 702      26.906   0.269   4.364  0.00  0.00    +0.000 A 
ATOM     16  CAY 5QK A 702      27.731  -0.024   5.453  0.00  0.00    +0.000 C 
ATOM     17  NAT 5QK A 702      29.103  -0.450   5.120  0.00  0.00    +0.000 NA
ENDBRANCH   7  17
ENDBRANCH   5   7
ENDBRANCH   4   5
ENDBRANCH   1   4
BRANCH   2  18
ATOM     18  CAG 5QK A 702      27.088   3.089   6.888  0.00  0.00    +0.000 C 
BRANCH  18  19
ATOM     19  OAH 5QK A 702      26.591   4.438   6.969  0.00  0.00    +0.000 OA
BRANCH  19  20
ATOM     20  CAI 5QK A 702      25.605   4.623   6.062  0.00  0.00    +0.000 A 
ATOM     21  CAJ 5QK A 702      25.643   5.820   5.334  0.00  0.00    +0.000 A 
ATOM     22  NAK 5QK A 702      26.614   6.742   5.542  0.00  0.00    +0.000 NA
ATOM     23  CAL 5QK A 702      26.626   7.956   4.805  0.00  0.00    +0.000 A 
ATOM     24  CAM 5QK A 702      25.633   8.211   3.852  0.00  0.00    +0.000 A 
ATOM     25  CAN 5QK A 702      24.636   7.256   3.639  0.00  0.00    +0.000 A 
ATOM     26  CAO 5QK A 702      24.642   6.065   4.378  0.00  0.00    +0.000 A 
ATOM     27  CAP 5QK A 702      23.646   5.104   4.176  0.00  0.00    +0.000 A 
ATOM     28  CAQ 5QK A 702      23.627   3.912   4.908  0.00  0.00    +0.000 A 
ATOM     29  CAR 5QK A 702      24.611   3.664   5.860  0.00  0.00    +0.000 A 
ENDBRANCH  19  20
ENDBRANCH  18  19
ENDBRANCH   2  18
TORSDOF 7
ENDMDL
MODEL 7
REMARK VINA RESULT:      -6.1      4.918      6.726
REMARK  Name = ligand_pdbs\5QK.pdb
REMARK  7 active torsions:
REMARK  status: ('A' for Active; 'I' for Inactive)
REMARK    1  A    between atoms: NAT_10  and  CAS_11
REMARK    2  A    between atoms: CAS_11  and  CAB_12
REMARK    3  A    between atoms: CAB_12  and  CAC_14
REMARK    4  A    between atoms: CAC_14  and  NAD_15
REMARK    5  A    between atoms: CAE_16  and  CAG_18
REMARK    6  A    between atoms: CAG_18  and  OAH_19
REMARK    7  A    between atoms: OAH_19  and  CAI_20
REMARK                            x       y       z     vdW  Elec       q    Type
REMARK                         _______ _______ _______ _____ _____    ______ ____
ROOT
ATOM      1  NAD 5QK A 702      30.346   2.558   5.576  0.00  0.00    +0.000 NA
ATOM      2  CAE 5QK A 702      29.426   3.327   6.259  0.00  0.00    +0.000 C 
ATOM      3  OAF 5QK A 702      29.322   3.409   7.489  0.00  0.00    +0.000 OA
ENDROOT
BRANCH   1   4
ATOM      4  CAC 5QK A 702      31.402   1.736   6.232  0.00  0.00    +0.000 C 
BRANCH   4   5
ATOM      5  CAB 5QK A 702      30.924   0.267   6.457  0.00  0.00    +0.000 C 
ATOM      6  OAA 5QK A 702      30.062   0.188   7.584  0.00  0.00    +0.000 OA
BRANCH   5   7
ATOM      7  CAS 5QK A 702      30.181  -0.352   5.221  0.00  0.00    +0.000 C 
BRANCH   7  17
ATOM      8  CAU 5QK A 702      28.020  -1.355   4.845  0.00  0.00    +0.000 C 
ATOM      9  CAV 5QK A 702      26.512  -1.180   4.747  0.00  0.00    +0.000 C 
ATOM     10  CAW 5QK A 702      26.205  -0.090   3.915  0.00  0.00    +0.000 A 
ATOM     11  CBC 5QK A 702      24.924  -0.027   3.344  0.00  0.00    +0.000 A 
ATOM     12  CBB 5QK A 702      24.589   1.040   2.512  0.00  0.00    +0.000 A 
ATOM     13  CBA 5QK A 702      25.515   2.053   2.255  0.00  0.00    +0.000 A 
ATOM     14  CAZ 5QK A 702      26.793   2.007   2.810  0.00  0.00    +0.000 A 
ATOM     15  CAX 5QK A 702      27.145   0.937   3.641  0.00  0.00    +0.000 A 
ATOM     16  CAY 5QK A 702      28.438   0.939   4.173  0.00  0.00    +0.000 C 
ATOM     17  NAT 5QK A 702      28.716  -0.097   5.184  0.00  0.00    +0.000 NA
ENDBRANCH   7  17
ENDBRANCH   5   7
ENDBRANCH   4   5
ENDBRANCH   1   4
BRANCH   2  18
ATOM     18  CAG 5QK A 702      28.447   4.139   5.393  0.00  0.00    +0.000 C 
BRANCH  18  19
ATOM     19  OAH 5QK A 702      27.785   5.152   6.174  0.00  0.00    +0.000 OA
BRANCH  19  20
ATOM     20  CAI 5QK A 702      26.770   5.693   5.464  0.00  0.00    +0.000 A 
ATOM     21  CAJ 5QK A 702      25.630   4.896   5.296  0.00  0.00    +0.000 A 
ATOM     22  NAK 5QK A 702      25.561   3.646   5.813  0.00  0.00    +0.000 NA
ATOM     23  CAL 5QK A 702      24.403   2.847   5.620  0.00  0.00    +0.000 A 
ATOM     24  CAM 5QK A 702      23.317   3.346   4.891  0.00  0.00    +0.000 A 
ATOM     25  CAN 5QK A 702      23.392   4.637   4.362  0.00  0.00    +0.000 A 
ATOM     26  CAO 5QK A 702      24.545   5.408   4.564  0.00  0.00    +0.000 A 
ATOM     27  CAP 5QK A 702      24.632   6.700   4.036  0.00  0.00    +0.000 A 
ATOM     28  CAQ 5QK A 702      25.775   7.484   4.218  0.00  0.00    +0.000 A 
ATOM     29  CAR 5QK A 702      26.856   6.983   4.935  0.00  0.00    +0.000 A 
ENDBRANCH  19  20
ENDBRANCH  18  19
ENDBRANCH   2  18
TORSDOF 7
ENDMDL
MODEL 8
REMARK VINA RESULT:      -6.1      5.292      7.570
REMARK  Name = ligand_pdbs\5QK.pdb
REMARK  7 active torsions:
REMARK  status: ('A' for Active; 'I' for Inactive)
REMARK    1  A    between atoms: NAT_10  and  CAS_11
REMARK    2  A    between atoms: CAS_11  and  CAB_12
REMARK    3  A    between atoms: CAB_12  and  CAC_14
REMARK    4  A    between atoms: CAC_14  and  NAD_15
REMARK    5  A    between atoms: CAE_16  and  CAG_18
REMARK    6  A    between atoms: CAG_18  and  OAH_19
REMARK    7  A    between atoms: OAH_19  and  CAI_20
REMARK                            x       y       z     vdW  Elec       q    Type
REMARK                         _______ _______ _______ _____ _____    ______ ____
ROOT
ATOM      1  NAD 5QK A 702      28.525   4.497   5.967  0.00  0.00    +0.000 NA
ATOM      2  CAE 5QK A 702      27.226   4.956   6.041  0.00  0.00    +0.000 C 
ATOM      3  OAF 5QK A 702      26.337   4.502   6.774  0.00  0.00    +0.000 OA
ENDROOT
BRANCH   1   4
ATOM      4  CAC 5QK A 702      29.073   3.399   6.812  0.00  0.00    +0.000 C 
BRANCH   4   5
ATOM      5  CAB 5QK A 702      30.104   2.531   6.023  0.00  0.00    +0.000 C 
ATOM      6  OAA 5QK A 702      31.349   3.207   5.918  0.00  0.00    +0.000 OA
BRANCH   5   7
ATOM      7  CAS 5QK A 702      30.359   1.119   6.659  0.00  0.00    +0.000 C 
BRANCH   7  17
ATOM      8  CAU 5QK A 702      30.102   0.445   4.358  0.00  0.00    +0.000 C 
ATOM      9  CAV 5QK A 702      29.790  -0.661   3.362  0.00  0.00    +0.000 C 
ATOM     10  CAW 5QK A 702      28.620  -1.339   3.741  0.00  0.00    +0.000 A 
ATOM     11  CBC 5QK A 702      27.925  -2.071   2.765  0.00  0.00    +0.000 A 
ATOM     12  CBB 5QK A 702      26.759  -2.752   3.110  0.00  0.00    +0.000 A 
ATOM     13  CBA 5QK A 702      26.286  -2.723   4.423  0.00  0.00    +0.000 A 
ATOM     14  CAZ 5QK A 702      26.959  -2.000   5.406  0.00  0.00    +0.000 A 
ATOM     15  CAX 5QK A 702      28.128  -1.305   5.073  0.00  0.00    +0.000 A 
ATOM     16  CAY 5QK A 702      28.765  -0.596   6.096  0.00  0.00    +0.000 C 
ATOM     17  NAT 5QK A 702      30.083  -0.030   5.756  0.00  0.00    +0.000 NA
ENDBRANCH   7  17
ENDBRANCH   5   7
ENDBRANCH   4   5
ENDBRANCH   1   4
BRANCH   2  18
ATOM     18  CAG 5QK A 702      26.869   6.130   5.112  0.00  0.00    +0.000 C 
BRANCH  18  19
ATOM     19  OAH 5QK A 702      26.429   5.655   3.826  0.00  0.00    +0.000 OA
BRANCH  19  20
ATOM     20  CAI 5QK A 702      25.339   4.869   3.972  0.00  0.00    +0.000 A 
ATOM     21  CAJ 5QK A 702      25.503   3.510   3.669  0.00  0.00    +0.000 A 
ATOM     22  NAK 5QK A 702      26.693   3.021   3.244  0.00  0.00    +0.000 NA
ATOM     23  CAL 5QK A 702      26.836   1.644   2.928  0.00  0.00    +0.000 A 
ATOM     24  CAM 5QK A 702      25.745   0.776   3.054  0.00  0.00    +0.000 A 
ATOM     25  CAN 5QK A 702      24.521   1.285   3.496  0.00  0.00    +0.000 A 
ATOM     26  CAO 5QK A 702      24.402   2.647   3.802  0.00  0.00    +0.000 A 
ATOM     27  CAP 5QK A 702      23.180   3.168   4.241  0.00  0.00    +0.000 A 
ATOM     28  CAQ 5QK A 702      23.036   4.526   4.544  0.00  0.00    +0.000 A 
ATOM     29  CAR 5QK A 702      24.119   5.388   4.410  0.00  0.00    +0.000 A 
ENDBRANCH  19  20
ENDBRANCH  18  19
ENDBRANCH   2  18
TORSDOF 7
ENDMDL
MODEL 9
REMARK VINA RESULT:      -6.0      5.039      8.207
REMARK  Name = ligand_pdbs\5QK.pdb
REMARK  7 active torsions:
REMARK  status: ('A' for Active; 'I' for Inactive)
REMARK    1  A    between atoms: NAT_10  and  CAS_11
REMARK    2  A    between atoms: CAS_11  and  CAB_12
REMARK    3  A    between atoms: CAB_12  and  CAC_14
REMARK    4  A    between atoms: CAC_14  and  NAD_15
REMARK    5  A    between atoms: CAE_16  and  CAG_18
REMARK    6  A    between atoms: CAG_18  and  OAH_19
REMARK    7  A    between atoms: OAH_19  and  CAI_20
REMARK                            x       y       z     vdW  Elec       q    Type
REMARK                         _______ _______ _______ _____ _____    ______ ____
ROOT
ATOM      1  NAD 5QK A 702      25.841   5.263   3.975  0.00  0.00    +0.000 NA
ATOM      2  CAE 5QK A 702      27.127   5.676   4.259  0.00  0.00    +0.000 C 
ATOM      3  OAF 5QK A 702      27.439   6.604   5.017  0.00  0.00    +0.000 OA
ENDROOT
BRANCH   1   4
ATOM      4  CAC 5QK A 702      24.618   5.853   4.590  0.00  0.00    +0.000 C 
BRANCH   4   5
ATOM      5  CAB 5QK A 702      23.621   4.744   5.054  0.00  0.00    +0.000 C 
ATOM      6  OAA 5QK A 702      22.906   4.218   3.945  0.00  0.00    +0.000 OA
BRANCH   5   7
ATOM      7  CAS 5QK A 702      24.308   3.553   5.810  0.00  0.00    +0.000 C 
BRANCH   7  17
ATOM      8  CAU 5QK A 702      24.285   2.130   3.862  0.00  0.00    +0.000 C 
ATOM      9  CAV 5QK A 702      25.039   1.174   2.950  0.00  0.00    +0.000 C 
ATOM     10  CAW 5QK A 702      25.703   0.199   3.713  0.00  0.00    +0.000 A 
ATOM     11  CBC 5QK A 702      26.073  -1.001   3.087  0.00  0.00    +0.000 A 
ATOM     12  CBB 5QK A 702      26.731  -1.989   3.818  0.00  0.00    +0.000 A 
ATOM     13  CBA 5QK A 702      27.037  -1.786   5.165  0.00  0.00    +0.000 A 
ATOM     14  CAZ 5QK A 702      26.674  -0.602   5.806  0.00  0.00    +0.000 A 
ATOM     15  CAX 5QK A 702      26.006   0.396   5.086  0.00  0.00    +0.000 A 
ATOM     16  CAY 5QK A 702      25.667   1.563   5.776  0.00  0.00    +0.000 C 
ATOM     17  NAT 5QK A 702      25.132   2.662   4.949  0.00  0.00    +0.000 NA
ENDBRANCH   7  17
ENDBRANCH   5   7
ENDBRANCH   4   5
ENDBRANCH   1   4
BRANCH   2  18
ATOM     18  CAG 5QK A 702      28.256   4.907   3.552  0.00  0.00    +0.000 C 
BRANCH  18  19
ATOM     19  OAH 5QK A 702      27.966   3.497   3.500  0.00  0.00    +0.000 OA
BRANCH  19  20
ATOM     20  CAI 5QK A 702      28.603   2.857   4.506  0.00  0.00    +0.000 A 
ATOM     21  CAJ 5QK A 702      29.117   1.586   4.212  0.00  0.00    +0.000 A 
ATOM     22  NAK 5QK A 702      28.968   1.033   2.984  0.00  0.00    +0.000 NA
ATOM     23  CAL 5QK A 702      29.482  -0.262   2.708  0.00  0.00    +0.000 A 
ATOM     24  CAM 5QK A 702      30.151  -0.981   3.706  0.00  0.00    +0.000 A 
ATOM     25  CAN 5QK A 702      30.303  -0.405   4.970  0.00  0.00    +0.000 A 
ATOM     26  CAO 5QK A 702      29.788   0.874   5.221  0.00  0.00    +0.000 A 
ATOM     27  CAP 5QK A 702      29.932   1.459   6.483  0.00  0.00    +0.000 A 
ATOM     28  CAQ 5QK A 702      29.418   2.730   6.758  0.00  0.00    +0.000 A 
ATOM     29  CAR 5QK A 702      28.747   3.439   5.767  0.00  0.00    +0.000 A 
ENDBRANCH  19  20
ENDBRANCH  18  19
ENDBRANCH   2  18
TORSDOF 7
ENDMDL
