MODEL 1
REMARK VINA RESULT:      -7.6      0.000      0.000
REMARK  Name = ligand_pdbs\5QL.pdb
REMARK  7 active torsions:
REMARK  status: ('A' for Active; 'I' for Inactive)
REMARK    1  A    between atoms: NAU_10  and  CAT_11
REMARK    2  A    between atoms: CAT_11  and  CAB_12
REMARK    3  A    between atoms: CAB_12  and  CAC_14
REMARK    4  A    between atoms: CAC_14  and  NAD_15
REMARK    5  A    between atoms: CAE_16  and  CAG_18
REMARK    6  A    between atoms: CAI_23  and  NAJ_24
REMARK    7  A    between atoms: NAJ_24  and  CAK_25
REMARK                            x       y       z     vdW  Elec       q    Type
REMARK                         _______ _______ _______ _____ _____    ______ ____
ROOT
ATOM      1  NAD 5QL A 702      25.420   7.254   5.222  0.00  0.00    +0.000 NA
ATOM      2  CAE 5QL A 702      26.284   6.257   4.994  0.00  0.00    +0.000 C 
ATOM      3  OAF 5QL A 702      27.512   6.385   5.057  0.00  0.00    +0.000 OA
ENDROOT
BRANCH   2   4
ATOM      4  CAG 5QL A 702      25.681   5.026   4.688  0.00  0.00    +0.000 A 
ATOM      5  CAH 5QL A 702      26.441   4.007   4.112  0.00  0.00    +0.000 A 
ATOM      6  CAS 5QL A 702      24.327   4.782   4.991  0.00  0.00    +0.000 A 
ATOM      7  CAR 5QL A 702      23.728   3.552   4.701  0.00  0.00    +0.000 A 
ATOM      8  CAQ 5QL A 702      24.500   2.561   4.106  0.00  0.00    +0.000 A 
ATOM      9  CAI 5QL A 702      25.858   2.767   3.829  0.00  0.00    +0.000 A 
BRANCH   9  10
ATOM     10  NAJ 5QL A 702      26.635   1.852   3.222  0.00  0.00    +0.000 NA
BRANCH  10  11
ATOM     11  CAK 5QL A 702      26.840   0.402   3.499  0.00  0.00    +0.000 C 
ATOM     12  CAL 5QL A 702      26.989   0.166   5.013  0.00  0.00    +0.000 C 
ATOM     13  CAM 5QL A 702      26.897  -1.335   5.248  0.00  0.00    +0.000 C 
ATOM     14  OAN 5QL A 702      27.942  -2.017   4.522  0.00  0.00    +0.000 OA
ATOM     15  CAO 5QL A 702      27.931  -1.787   3.104  0.00  0.00    +0.000 C 
ATOM     16  CAP 5QL A 702      28.024  -0.273   2.803  0.00  0.00    +0.000 C 
ENDBRANCH  10  11
ENDBRANCH   9  10
ENDBRANCH   2   4
BRANCH   1  17
ATOM     17  CAC 5QL A 702      25.830   8.600   5.658  0.00  0.00    +0.000 C 
BRANCH  17  18
ATOM     18  CAB 5QL A 702      24.574   9.108   6.387  0.00  0.00    +0.000 C 
ATOM     19  OAA 5QL A 702      23.389   8.653   5.759  0.00  0.00    +0.000 OA
BRANCH  18  20
ATOM     20  CAT 5QL A 702      24.588  10.680   6.513  0.00  0.00    +0.000 C 
BRANCH  20  30
ATOM     21  CAV 5QL A 702      23.988  12.574   7.919  0.00  0.00    +0.000 C 
ATOM     22  CAW 5QL A 702      23.013  13.014   8.952  0.00  0.00    +0.000 C 
ATOM     23  CAX 5QL A 702      23.193  12.235  10.090  0.00  0.00    +0.000 A 
ATOM     24  CBD 5QL A 702      22.879  12.787  11.343  0.00  0.00    +0.000 A 
ATOM     25  CBC 5QL A 702      23.069  12.037  12.510  0.00  0.00    +0.000 A 
ATOM     26  CBB 5QL A 702      23.572  10.728  12.435  0.00  0.00    +0.000 A 
ATOM     27  CBA 5QL A 702      23.888  10.172  11.192  0.00  0.00    +0.000 A 
ATOM     28  CAY 5QL A 702      23.699  10.920  10.020  0.00  0.00    +0.000 A 
ATOM     29  CAZ 5QL A 702      24.057  10.326   8.809  0.00  0.00    +0.000 C 
ATOM     30  NAU 5QL A 702      23.744  11.148   7.629  0.00  0.00    +0.000 NA
ENDBRANCH  20  30
ENDBRANCH  18  20
ENDBRANCH  17  18
ENDBRANCH   1  17
TORSDOF 7
ENDMDL
MODEL 2
REMARK VINA RESULT:      -6.3      4.143      9.341
REMARK  Name = ligand_pdbs\5QL.pdb
REMARK  7 active torsions:
REMARK  status: ('A' for Active; 'I' for Inactive)
REMARK    1  A    between atoms: NAU_10  and  CAT_11
REMARK    2  A    between atoms: CAT_11  and  CAB_12
REMARK    3  A    between atoms: CAB_12  and  CAC_14
REMARK    4  A    between atoms: CAC_14  and  NAD_15
REMARK    5  A    between atoms: CAE_16  and  CAG_18
REMARK    6  A    between atoms: CAI_23  and  NAJ_24
REMARK    7  A    between atoms: NAJ_24  and  CAK_25
REMARK                            x       y       z     vdW  Elec       q    Type
REMARK                         _______ _______ _______ _____ _____    ______ ____
ROOT
ATOM      1  NAD 5QL A 702      28.826  -0.424   5.132  0.00  0.00    +0.000 NA
ATOM      2  CAE 5QL A 702      29.239   0.620   4.402  0.00  0.00    +0.000 C 
ATOM      3  OAF 5QL A 702      29.669   0.522   3.247  0.00  0.00    +0.000 OA
ENDROOT
BRANCH   2   4
ATOM      4  CAG 5QL A 702      29.127   1.860   5.050  0.00  0.00    +0.000 A 
ATOM      5  CAH 5QL A 702      28.519   2.932   4.394  0.00  0.00    +0.000 A 
ATOM      6  CAS 5QL A 702      29.581   2.036   6.372  0.00  0.00    +0.000 A 
ATOM      7  CAR 5QL A 702      29.458   3.266   7.026  0.00  0.00    +0.000 A 
ATOM      8  CAQ 5QL A 702      28.870   4.325   6.343  0.00  0.00    +0.000 A 
ATOM      9  CAI 5QL A 702      28.377   4.165   5.041  0.00  0.00    +0.000 A 
BRANCH   9  10
ATOM     10  NAJ 5QL A 702      27.833   5.168   4.328  0.00  0.00    +0.000 NA
BRANCH  10  11
ATOM     11  CAK 5QL A 702      26.685   6.071   4.626  0.00  0.00    +0.000 C 
ATOM     12  CAL 5QL A 702      25.956   6.450   3.325  0.00  0.00    +0.000 C 
ATOM     13  CAM 5QL A 702      24.645   7.115   3.718  0.00  0.00    +0.000 C 
ATOM     14  OAN 5QL A 702      24.903   8.288   4.518  0.00  0.00    +0.000 OA
ATOM     15  CAO 5QL A 702      25.654   8.042   5.716  0.00  0.00    +0.000 C 
ATOM     16  CAP 5QL A 702      27.003   7.366   5.377  0.00  0.00    +0.000 C 
ENDBRANCH  10  11
ENDBRANCH   9  10
ENDBRANCH   2   4
BRANCH   1  17
ATOM     17  CAC 5QL A 702      28.760  -1.802   4.613  0.00  0.00    +0.000 C 
BRANCH  17  18
ATOM     18  CAB 5QL A 702      27.247  -2.015   4.437  0.00  0.00    +0.000 C 
ATOM     19  OAA 5QL A 702      26.918  -3.392   4.390  0.00  0.00    +0.000 OA
BRANCH  18  20
ATOM     20  CAT 5QL A 702      26.711  -1.254   3.163  0.00  0.00    +0.000 C 
BRANCH  20  30
ATOM     21  CAV 5QL A 702      25.578   0.792   2.491  0.00  0.00    +0.000 C 
ATOM     22  CAW 5QL A 702      24.424   1.667   2.829  0.00  0.00    +0.000 C 
ATOM     23  CAX 5QL A 702      24.634   2.206   4.093  0.00  0.00    +0.000 A 
ATOM     24  CBD 5QL A 702      24.074   3.460   4.394  0.00  0.00    +0.000 A 
ATOM     25  CBC 5QL A 702      24.283   4.041   5.651  0.00  0.00    +0.000 A 
ATOM     26  CBB 5QL A 702      25.052   3.374   6.617  0.00  0.00    +0.000 A 
ATOM     27  CBA 5QL A 702      25.613   2.128   6.326  0.00  0.00    +0.000 A 
ATOM     28  CAY 5QL A 702      25.405   1.542   5.068  0.00  0.00    +0.000 A 
ATOM     29  CAZ 5QL A 702      26.012   0.310   4.821  0.00  0.00    +0.000 C 
ATOM     30  NAU 5QL A 702      25.669  -0.269   3.512  0.00  0.00    +0.000 NA
ENDBRANCH  20  30
ENDBRANCH  18  20
ENDBRANCH  17  18
ENDBRANCH   1  17
TORSDOF 7
ENDMDL
MODEL 3
REMARK VINA RESULT:      -6.0      2.422     10.521
REMARK  Name = ligand_pdbs\5QL.pdb
REMARK  7 active torsions:
REMARK  status: ('A' for Active; 'I' for Inactive)
REMARK    1  A    between atoms: NAU_10  and  CAT_11
REMARK    2  A    between atoms: CAT_11  and  CAB_12
REMARK    3  A    between atoms: CAB_12  and  CAC_14
REMARK    4  A    between atoms: CAC_14  and  NAD_15
REMARK    5  A    between atoms: CAE_16  and  CAG_18
REMARK    6  A    between atoms: CAI_23  and  NAJ_24
REMARK    7  A    between atoms: NAJ_24  and  CAK_25
REMARK                            x       y       z     vdW  Elec       q    Type
REMARK                         _______ _______ _______ _____ _____    ______ ____
ROOT
ATOM      1  NAD 5QL A 702      24.956   3.562   4.118  0.00  0.00    +0.000 NA
ATOM      2  CAE 5QL A 702      24.285   4.652   4.512  0.00  0.00    +0.000 C 
ATOM      3  OAF 5QL A 702      23.053   4.702   4.605  0.00  0.00    +0.000 OA
ENDROOT
BRANCH   2   4
ATOM      4  CAG 5QL A 702      25.099   5.749   4.835  0.00  0.00    +0.000 A 
ATOM      5  CAH 5QL A 702      24.513   6.971   5.168  0.00  0.00    +0.000 A 
ATOM      6  CAS 5QL A 702      26.502   5.630   4.873  0.00  0.00    +0.000 A 
ATOM      7  CAR 5QL A 702      27.315   6.717   5.208  0.00  0.00    +0.000 A 
ATOM      8  CAQ 5QL A 702      26.709   7.931   5.513  0.00  0.00    +0.000 A 
ATOM      9  CAI 5QL A 702      25.314   8.064   5.519  0.00  0.00    +0.000 A 
BRANCH   9  10
ATOM     10  NAJ 5QL A 702      24.685   9.225   5.772  0.00  0.00    +0.000 NA
BRANCH  10  11
ATOM     11  CAK 5QL A 702      24.233   9.837   7.055  0.00  0.00    +0.000 C 
ATOM     12  CAL 5QL A 702      23.989  11.345   6.868  0.00  0.00    +0.000 C 
ATOM     13  CAM 5QL A 702      23.259  11.842   8.108  0.00  0.00    +0.000 C 
ATOM     14  OAN 5QL A 702      24.056  11.597   9.286  0.00  0.00    +0.000 OA
ATOM     15  CAO 5QL A 702      24.404  10.219   9.496  0.00  0.00    +0.000 C 
ATOM     16  CAP 5QL A 702      25.153   9.659   8.264  0.00  0.00    +0.000 C 
ENDBRANCH  10  11
ENDBRANCH   9  10
ENDBRANCH   2   4
BRANCH   1  17
ATOM     17  CAC 5QL A 702      24.309   2.270   3.829  0.00  0.00    +0.000 C 
BRANCH  17  18
ATOM     18  CAB 5QL A 702      25.389   1.535   3.017  0.00  0.00    +0.000 C 
ATOM     19  OAA 5QL A 702      25.118   1.585   1.627  0.00  0.00    +0.000 OA
BRANCH  18  20
ATOM     20  CAT 5QL A 702      25.560   0.048   3.514  0.00  0.00    +0.000 C 
BRANCH  20  30
ATOM     21  CAV 5QL A 702      26.861  -0.804   5.386  0.00  0.00    +0.000 C 
ATOM     22  CAW 5QL A 702      28.246  -1.156   5.795  0.00  0.00    +0.000 C 
ATOM     23  CAX 5QL A 702      29.015   0.002   5.797  0.00  0.00    +0.000 A 
ATOM     24  CBD 5QL A 702      30.108   0.088   6.677  0.00  0.00    +0.000 A 
ATOM     25  CBC 5QL A 702      30.890   1.248   6.719  0.00  0.00    +0.000 A 
ATOM     26  CBB 5QL A 702      30.588   2.333   5.880  0.00  0.00    +0.000 A 
ATOM     27  CBA 5QL A 702      29.502   2.258   5.003  0.00  0.00    +0.000 A 
ATOM     28  CAY 5QL A 702      28.717   1.096   4.958  0.00  0.00    +0.000 A 
ATOM     29  CAZ 5QL A 702      27.629   1.085   4.084  0.00  0.00    +0.000 C 
ATOM     30  NAU 5QL A 702      26.915  -0.202   4.040  0.00  0.00    +0.000 NA
ENDBRANCH  20  30
ENDBRANCH  18  20
ENDBRANCH  17  18
ENDBRANCH   1  17
TORSDOF 7
ENDMDL
MODEL 4
REMARK VINA RESULT:      -5.9      4.728      7.071
REMARK  Name = ligand_pdbs\5QL.pdb
REMARK  7 active torsions:
REMARK  status: ('A' for Active; 'I' for Inactive)
REMARK    1  A    between atoms: NAU_10  and  CAT_11
REMARK    2  A    between atoms: CAT_11  and  CAB_12
REMARK    3  A    between atoms: CAB_12  and  CAC_14
REMARK    4  A    between atoms: CAC_14  and  NAD_15
REMARK    5  A    between atoms: CAE_16  and  CAG_18
REMARK    6  A    between atoms: CAI_23  and  NAJ_24
REMARK    7  A    between atoms: NAJ_24  and  CAK_25
REMARK                            x       y       z     vdW  Elec       q    Type
REMARK                         _______ _______ _______ _____ _____    ______ ____
ROOT
ATOM      1  NAD 5QL A 702      27.422   5.985   5.212  0.00  0.00    +0.000 NA
ATOM      2  CAE 5QL A 702      27.904   5.014   4.426  0.00  0.00    +0.000 C 
ATOM      3  OAF 5QL A 702      27.858   5.044   3.191  0.00  0.00    +0.000 OA
ENDROOT
BRANCH   2   4
ATOM      4  CAG 5QL A 702      28.494   3.946   5.122  0.00  0.00    +0.000 A 
ATOM      5  CAH 5QL A 702      28.908   2.810   4.423  0.00  0.00    +0.000 A 
ATOM      6  CAS 5QL A 702      28.717   4.015   6.510  0.00  0.00    +0.000 A 
ATOM      7  CAR 5QL A 702      29.318   2.959   7.203  0.00  0.00    +0.000 A 
ATOM      8  CAQ 5QL A 702      29.699   1.828   6.490  0.00  0.00    +0.000 A 
ATOM      9  CAI 5QL A 702      29.523   1.752   5.102  0.00  0.00    +0.000 A 
BRANCH   9  10
ATOM     10  NAJ 5QL A 702      29.843   0.666   4.375  0.00  0.00    +0.000 NA
BRANCH  10  11
ATOM     11  CAK 5QL A 702      29.159  -0.649   4.224  0.00  0.00    +0.000 C 
ATOM     12  CAL 5QL A 702      28.499  -0.749   2.837  0.00  0.00    +0.000 C 
ATOM     13  CAM 5QL A 702      28.083  -2.199   2.637  0.00  0.00    +0.000 C 
ATOM     14  OAN 5QL A 702      27.158  -2.598   3.671  0.00  0.00    +0.000 OA
ATOM     15  CAO 5QL A 702      27.661  -2.459   5.009  0.00  0.00    +0.000 C 
ATOM     16  CAP 5QL A 702      28.099  -0.999   5.271  0.00  0.00    +0.000 C 
ENDBRANCH  10  11
ENDBRANCH   9  10
ENDBRANCH   2   4
BRANCH   1  17
ATOM     17  CAC 5QL A 702      26.854   7.242   4.692  0.00  0.00    +0.000 C 
BRANCH  17  18
ATOM     18  CAB 5QL A 702      25.535   6.770   4.056  0.00  0.00    +0.000 C 
ATOM     19  OAA 5QL A 702      24.999   7.749   3.185  0.00  0.00    +0.000 OA
BRANCH  18  20
ATOM     20  CAT 5QL A 702      24.490   6.351   5.161  0.00  0.00    +0.000 C 
BRANCH  20  30
ATOM     21  CAV 5QL A 702      24.934   4.225   6.259  0.00  0.00    +0.000 C 
ATOM     22  CAW 5QL A 702      24.523   2.797   6.272  0.00  0.00    +0.000 C 
ATOM     23  CAX 5QL A 702      24.861   2.228   5.049  0.00  0.00    +0.000 A 
ATOM     24  CBD 5QL A 702      25.150   0.854   5.000  0.00  0.00    +0.000 A 
ATOM     25  CBC 5QL A 702      25.514   0.254   3.788  0.00  0.00    +0.000 A 
ATOM     26  CBB 5QL A 702      25.590   1.022   2.615  0.00  0.00    +0.000 A 
ATOM     27  CBA 5QL A 702      25.305   2.389   2.655  0.00  0.00    +0.000 A 
ATOM     28  CAY 5QL A 702      24.939   2.994   3.868  0.00  0.00    +0.000 A 
ATOM     29  CAZ 5QL A 702      24.693   4.367   3.857  0.00  0.00    +0.000 C 
ATOM     30  NAU 5QL A 702      24.232   4.899   5.149  0.00  0.00    +0.000 NA
ENDBRANCH  20  30
ENDBRANCH  18  20
ENDBRANCH  17  18
ENDBRANCH   1  17
TORSDOF 7
ENDMDL
MODEL 5
REMARK VINA RESULT:      -5.8      3.937      9.418
REMARK  Name = ligand_pdbs\5QL.pdb
REMARK  7 active torsions:
REMARK  status: ('A' for Active; 'I' for Inactive)
REMARK    1  A    between atoms: NAU_10  and  CAT_11
REMARK    2  A    between atoms: CAT_11  and  CAB_12
REMARK    3  A    between atoms: CAB_12  and  CAC_14
REMARK    4  A    between atoms: CAC_14  and  NAD_15
REMARK    5  A    between atoms: CAE_16  and  CAG_18
REMARK    6  A    between atoms: CAI_23  and  NAJ_24
REMARK    7  A    between atoms: NAJ_24  and  CAK_25
REMARK                            x       y       z     vdW  Elec       q    Type
REMARK                         _______ _______ _______ _____ _____    ______ ____
ROOT
ATOM      1  NAD 5QL A 702      26.226  -0.161   4.596  0.00  0.00    +0.000 NA
ATOM      2  CAE 5QL A 702      25.366   0.721   4.071  0.00  0.00    +0.000 C 
ATOM      3  OAF 5QL A 702      24.814   0.572   2.974  0.00  0.00    +0.000 OA
ENDROOT
BRANCH   2   4
ATOM      4  CAG 5QL A 702      25.117   1.840   4.881  0.00  0.00    +0.000 A 
ATOM      5  CAH 5QL A 702      24.578   2.998   4.316  0.00  0.00    +0.000 A 
ATOM      6  CAS 5QL A 702      25.361   1.806   6.268  0.00  0.00    +0.000 A 
ATOM      7  CAR 5QL A 702      25.101   2.914   7.080  0.00  0.00    +0.000 A 
ATOM      8  CAQ 5QL A 702      24.586   4.063   6.490  0.00  0.00    +0.000 A 
ATOM      9  CAI 5QL A 702      24.300   4.109   5.119  0.00  0.00    +0.000 A 
BRANCH   9  10
ATOM     10  NAJ 5QL A 702      23.835   5.209   4.498  0.00  0.00    +0.000 NA
BRANCH  10  11
ATOM     11  CAK 5QL A 702      24.345   6.610   4.475  0.00  0.00    +0.000 C 
ATOM     12  CAL 5QL A 702      25.311   6.804   3.293  0.00  0.00    +0.000 C 
ATOM     13  CAM 5QL A 702      25.557   8.299   3.151  0.00  0.00    +0.000 C 
ATOM     14  OAN 5QL A 702      26.127   8.828   4.367  0.00  0.00    +0.000 OA
ATOM     15  CAO 5QL A 702      25.328   8.618   5.541  0.00  0.00    +0.000 C 
ATOM     16  CAP 5QL A 702      25.046   7.110   5.739  0.00  0.00    +0.000 C 
ENDBRANCH  10  11
ENDBRANCH   9  10
ENDBRANCH   2   4
BRANCH   1  17
ATOM     17  CAC 5QL A 702      26.552  -1.452   3.964  0.00  0.00    +0.000 C 
BRANCH  17  18
ATOM     18  CAB 5QL A 702      27.884  -1.146   3.258  0.00  0.00    +0.000 C 
ATOM     19  OAA 5QL A 702      28.138  -2.062   2.208  0.00  0.00    +0.000 OA
BRANCH  18  20
ATOM     20  CAT 5QL A 702      29.078  -1.111   4.289  0.00  0.00    +0.000 C 
BRANCH  20  30
ATOM     21  CAV 5QL A 702      28.807   0.479   6.112  0.00  0.00    +0.000 C 
ATOM     22  CAW 5QL A 702      29.239   1.822   6.579  0.00  0.00    +0.000 C 
ATOM     23  CAX 5QL A 702      28.762   2.775   5.686  0.00  0.00    +0.000 A 
ATOM     24  CBD 5QL A 702      28.490   4.070   6.160  0.00  0.00    +0.000 A 
ATOM     25  CBC 5QL A 702      27.989   5.047   5.292  0.00  0.00    +0.000 A 
ATOM     26  CBB 5QL A 702      27.756   4.740   3.942  0.00  0.00    +0.000 A 
ATOM     27  CBA 5QL A 702      28.022   3.455   3.462  0.00  0.00    +0.000 A 
ATOM     28  CAY 5QL A 702      28.526   2.473   4.329  0.00  0.00    +0.000 A 
ATOM     29  CAZ 5QL A 702      28.747   1.199   3.804  0.00  0.00    +0.000 C 
ATOM     30  NAU 5QL A 702      29.355   0.259   4.760  0.00  0.00    +0.000 NA
ENDBRANCH  20  30
ENDBRANCH  18  20
ENDBRANCH  17  18
ENDBRANCH   1  17
TORSDOF 7
ENDMDL
MODEL 6
REMARK VINA RESULT:      -5.5      4.529      6.478
REMARK  Name = ligand_pdbs\5QL.pdb
REMARK  7 active torsions:
REMARK  status: ('A' for Active; 'I' for Inactive)
REMARK    1  A    between atoms: NAU_10  and  CAT_11
REMARK    2  A    between atoms: CAT_11  and  CAB_12
REMARK    3  A    between atoms: CAB_12  and  CAC_14
REMARK    4  A    between atoms: CAC_14  and  NAD_15
REMARK    5  A    between atoms: CAE_16  and  CAG_18
REMARK    6  A    between atoms: CAI_23  and  NAJ_24
REMARK    7  A    between atoms: NAJ_24  and  CAK_25
REMARK                            x       y       z     vdW  Elec       q    Type
REMARK                         _______ _______ _______ _____ _____    ______ ____
ROOT
ATOM      1  NAD 5QL A 702      24.168   4.924   4.501  0.00  0.00    +0.000 NA
ATOM      2  CAE 5QL A 702      24.413   3.909   5.338  0.00  0.00    +0.000 C 
ATOM      3  OAF 5QL A 702      24.349   4.004   6.569  0.00  0.00    +0.000 OA
ENDROOT
BRANCH   2   4
ATOM      4  CAG 5QL A 702      24.739   2.700   4.703  0.00  0.00    +0.000 A 
ATOM      5  CAH 5QL A 702      25.587   1.790   5.338  0.00  0.00    +0.000 A 
ATOM      6  CAS 5QL A 702      24.190   2.363   3.450  0.00  0.00    +0.000 A 
ATOM      7  CAR 5QL A 702      24.501   1.154   2.821  0.00  0.00    +0.000 A 
ATOM      8  CAQ 5QL A 702      25.367   0.275   3.463  0.00  0.00    +0.000 A 
ATOM      9  CAI 5QL A 702      25.895   0.570   4.726  0.00  0.00    +0.000 A 
BRANCH   9  10
ATOM     10  NAJ 5QL A 702      26.764  -0.232   5.369  0.00  0.00    +0.000 NA
BRANCH  10  11
ATOM     11  CAK 5QL A 702      27.853  -1.109   4.854  0.00  0.00    +0.000 C 
ATOM     12  CAL 5QL A 702      28.654  -0.378   3.763  0.00  0.00    +0.000 C 
ATOM     13  CAM 5QL A 702      29.909  -1.197   3.496  0.00  0.00    +0.000 C 
ATOM     14  OAN 5QL A 702      29.552  -2.526   3.062  0.00  0.00    +0.000 OA
ATOM     15  CAO 5QL A 702      28.731  -3.257   3.986  0.00  0.00    +0.000 C 
ATOM     16  CAP 5QL A 702      27.435  -2.470   4.294  0.00  0.00    +0.000 C 
ENDBRANCH  10  11
ENDBRANCH   9  10
ENDBRANCH   2   4
BRANCH   1  17
ATOM     17  CAC 5QL A 702      23.710   6.252   4.947  0.00  0.00    +0.000 C 
BRANCH  17  18
ATOM     18  CAB 5QL A 702      25.037   6.991   5.197  0.00  0.00    +0.000 C 
ATOM     19  OAA 5QL A 702      24.820   8.281   5.739  0.00  0.00    +0.000 OA
BRANCH  18  20
ATOM     20  CAT 5QL A 702      25.903   7.062   3.880  0.00  0.00    +0.000 C 
BRANCH  20  30
ATOM     21  CAV 5QL A 702      26.799   4.935   3.106  0.00  0.00    +0.000 C 
ATOM     22  CAW 5QL A 702      28.039   4.116   3.085  0.00  0.00    +0.000 C 
ATOM     23  CAX 5QL A 702      28.359   3.767   4.393  0.00  0.00    +0.000 A 
ATOM     24  CBD 5QL A 702      29.058   2.569   4.620  0.00  0.00    +0.000 A 
ATOM     25  CBC 5QL A 702      29.378   2.178   5.926  0.00  0.00    +0.000 A 
ATOM     26  CBB 5QL A 702      29.005   2.982   7.015  0.00  0.00    +0.000 A 
ATOM     27  CBA 5QL A 702      28.309   4.174   6.798  0.00  0.00    +0.000 A 
ATOM     28  CAY 5QL A 702      27.987   4.570   5.490  0.00  0.00    +0.000 A 
ATOM     29  CAZ 5QL A 702      27.267   5.754   5.332  0.00  0.00    +0.000 C 
ATOM     30  NAU 5QL A 702      27.050   6.135   3.927  0.00  0.00    +0.000 NA
ENDBRANCH  20  30
ENDBRANCH  18  20
ENDBRANCH  17  18
ENDBRANCH   1  17
TORSDOF 7
ENDMDL
MODEL 7
REMARK VINA RESULT:      -5.4      4.574      6.845
REMARK  Name = ligand_pdbs\5QL.pdb
REMARK  7 active torsions:
REMARK  status: ('A' for Active; 'I' for Inactive)
REMARK    1  A    between atoms: NAU_10  and  CAT_11
REMARK    2  A    between atoms: CAT_11  and  CAB_12
REMARK    3  A    between atoms: CAB_12  and  CAC_14
REMARK    4  A    between atoms: CAC_14  and  NAD_15
REMARK    5  A    between atoms: CAE_16  and  CAG_18
REMARK    6  A    between atoms: CAI_23  and  NAJ_24
REMARK    7  A    between atoms: NAJ_24  and  CAK_25
REMARK                            x       y       z     vdW  Elec       q    Type
REMARK                         _______ _______ _______ _____ _____    ______ ____
ROOT
ATOM      1  NAD 5QL A 702      25.459   5.354   3.745  0.00  0.00    +0.000 NA
ATOM      2  CAE 5QL A 702      24.528   4.514   4.216  0.00  0.00    +0.000 C 
ATOM      3  OAF 5QL A 702      23.567   4.874   4.907  0.00  0.00    +0.000 OA
ENDROOT
BRANCH   2   4
ATOM      4  CAG 5QL A 702      24.717   3.173   3.848  0.00  0.00    +0.000 A 
ATOM      5  CAH 5QL A 702      25.994   2.723   3.504  0.00  0.00    +0.000 A 
ATOM      6  CAS 5QL A 702      23.649   2.256   3.858  0.00  0.00    +0.000 A 
ATOM      7  CAR 5QL A 702      23.837   0.916   3.506  0.00  0.00    +0.000 A 
ATOM      8  CAQ 5QL A 702      25.113   0.498   3.143  0.00  0.00    +0.000 A 
ATOM      9  CAI 5QL A 702      26.199   1.382   3.162  0.00  0.00    +0.000 A 
BRANCH   9  10
ATOM     10  NAJ 5QL A 702      27.443   1.032   2.786  0.00  0.00    +0.000 NA
BRANCH  10  11
ATOM     11  CAK 5QL A 702      28.162  -0.271   2.872  0.00  0.00    +0.000 C 
ATOM     12  CAL 5QL A 702      27.610  -1.107   4.040  0.00  0.00    +0.000 C 
ATOM     13  CAM 5QL A 702      28.167  -2.515   3.891  0.00  0.00    +0.000 C 
ATOM     14  OAN 5QL A 702      29.610  -2.485   3.923  0.00  0.00    +0.000 OA
ATOM     15  CAO 5QL A 702      30.213  -1.659   2.916  0.00  0.00    +0.000 C 
ATOM     16  CAP 5QL A 702      29.684  -0.209   3.020  0.00  0.00    +0.000 C 
ENDBRANCH  10  11
ENDBRANCH   9  10
ENDBRANCH   2   4
BRANCH   1  17
ATOM     17  CAC 5QL A 702      25.399   6.815   3.924  0.00  0.00    +0.000 C 
BRANCH  17  18
ATOM     18  CAB 5QL A 702      25.967   6.996   5.343  0.00  0.00    +0.000 C 
ATOM     19  OAA 5QL A 702      25.929   8.352   5.748  0.00  0.00    +0.000 OA
BRANCH  18  20
ATOM     20  CAT 5QL A 702      27.426   6.407   5.449  0.00  0.00    +0.000 C 
BRANCH  20  30
ATOM     21  CAV 5QL A 702      26.894   4.416   6.743  0.00  0.00    +0.000 C 
ATOM     22  CAW 5QL A 702      26.786   2.936   6.641  0.00  0.00    +0.000 C 
ATOM     23  CAX 5QL A 702      28.050   2.419   6.377  0.00  0.00    +0.000 A 
ATOM     24  CBD 5QL A 702      28.353   1.120   6.819  0.00  0.00    +0.000 A 
ATOM     25  CBC 5QL A 702      29.623   0.576   6.588  0.00  0.00    +0.000 A 
ATOM     26  CBB 5QL A 702      30.599   1.326   5.912  0.00  0.00    +0.000 A 
ATOM     27  CBA 5QL A 702      30.306   2.618   5.470  0.00  0.00    +0.000 A 
ATOM     28  CAY 5QL A 702      29.035   3.166   5.699  0.00  0.00    +0.000 A 
ATOM     29  CAZ 5QL A 702      28.805   4.472   5.262  0.00  0.00    +0.000 C 
ATOM     30  NAU 5QL A 702      27.422   4.932   5.466  0.00  0.00    +0.000 NA
ENDBRANCH  20  30
ENDBRANCH  18  20
ENDBRANCH  17  18
ENDBRANCH   1  17
TORSDOF 7
ENDMDL
MODEL 8
REMARK VINA RESULT:      -5.2      4.561      9.355
REMARK  Name = ligand_pdbs\5QL.pdb
REMARK  7 active torsions:
REMARK  status: ('A' for Active; 'I' for Inactive)
REMARK    1  A    between atoms: NAU_10  and  CAT_11
REMARK    2  A    between atoms: CAT_11  and  CAB_12
REMARK    3  A    between atoms: CAB_12  and  CAC_14
REMARK    4  A    between atoms: CAC_14  and  NAD_15
REMARK    5  A    between atoms: CAE_16  and  CAG_18
REMARK    6  A    between atoms: CAI_23  and  NAJ_24
REMARK    7  A    between atoms: NAJ_24  and  CAK_25
REMARK                            x       y       z     vdW  Elec       q    Type
REMARK                         _______ _______ _______ _____ _____    ______ ____
ROOT
ATOM      1  NAD 5QL A 702      27.211  -1.134   3.643  0.00  0.00    +0.000 NA
ATOM      2  CAE 5QL A 702      27.027  -0.206   2.695  0.00  0.00    +0.000 C 
ATOM      3  OAF 5QL A 702      27.535  -0.266   1.569  0.00  0.00    +0.000 OA
ENDROOT
BRANCH   2   4
ATOM      4  CAG 5QL A 702      26.183   0.850   3.075  0.00  0.00    +0.000 A 
ATOM      5  CAH 5QL A 702      26.657   2.163   3.033  0.00  0.00    +0.000 A 
ATOM      6  CAS 5QL A 702      24.849   0.617   3.458  0.00  0.00    +0.000 A 
ATOM      7  CAR 5QL A 702      24.002   1.668   3.823  0.00  0.00    +0.000 A 
ATOM      8  CAQ 5QL A 702      24.504   2.964   3.796  0.00  0.00    +0.000 A 
ATOM      9  CAI 5QL A 702      25.817   3.226   3.382  0.00  0.00    +0.000 A 
BRANCH   9  10
ATOM     10  NAJ 5QL A 702      26.357   4.458   3.374  0.00  0.00    +0.000 NA
BRANCH  10  11
ATOM     11  CAK 5QL A 702      26.122   5.637   4.255  0.00  0.00    +0.000 C 
ATOM     12  CAL 5QL A 702      25.032   6.542   3.654  0.00  0.00    +0.000 C 
ATOM     13  CAM 5QL A 702      24.636   7.546   4.726  0.00  0.00    +0.000 C 
ATOM     14  OAN 5QL A 702      25.782   8.327   5.124  0.00  0.00    +0.000 OA
ATOM     15  CAO 5QL A 702      26.886   7.555   5.623  0.00  0.00    +0.000 C 
ATOM     16  CAP 5QL A 702      27.335   6.514   4.571  0.00  0.00    +0.000 C 
ENDBRANCH  10  11
ENDBRANCH   9  10
ENDBRANCH   2   4
BRANCH   1  17
ATOM     17  CAC 5QL A 702      27.974  -2.376   3.426  0.00  0.00    +0.000 C 
BRANCH  17  18
ATOM     18  CAB 5QL A 702      29.417  -1.931   3.716  0.00  0.00    +0.000 C 
ATOM     19  OAA 5QL A 702      30.337  -2.991   3.525  0.00  0.00    +0.000 OA
BRANCH  18  20
ATOM     20  CAT 5QL A 702      29.542  -1.319   5.165  0.00  0.00    +0.000 C 
BRANCH  20  30
ATOM     21  CAV 5QL A 702      30.495   0.780   5.944  0.00  0.00    +0.000 C 
ATOM     22  CAW 5QL A 702      30.398   2.254   5.775  0.00  0.00    +0.000 C 
ATOM     23  CAX 5QL A 702      29.145   2.667   6.215  0.00  0.00    +0.000 A 
ATOM     24  CBD 5QL A 702      29.004   3.968   6.729  0.00  0.00    +0.000 A 
ATOM     25  CBC 5QL A 702      27.761   4.408   7.199  0.00  0.00    +0.000 A 
ATOM     26  CBB 5QL A 702      26.648   3.554   7.158  0.00  0.00    +0.000 A 
ATOM     27  CBA 5QL A 702      26.779   2.259   6.650  0.00  0.00    +0.000 A 
ATOM     28  CAY 5QL A 702      28.023   1.814   6.177  0.00  0.00    +0.000 A 
ATOM     29  CAZ 5QL A 702      28.104   0.502   5.707  0.00  0.00    +0.000 C 
ATOM     30  NAU 5QL A 702      29.421   0.151   5.152  0.00  0.00    +0.000 NA
ENDBRANCH  20  30
ENDBRANCH  18  20
ENDBRANCH  17  18
ENDBRANCH   1  17
TORSDOF 7
ENDMDL
MODEL 9
REMARK VINA RESULT:      -5.2      4.405      9.630
REMARK  Name = ligand_pdbs\5QL.pdb
REMARK  7 active torsions:
REMARK  status: ('A' for Active; 'I' for Inactive)
REMARK    1  A    between atoms: NAU_10  and  CAT_11
REMARK    2  A    between atoms: CAT_11  and  CAB_12
REMARK    3  A    between atoms: CAB_12  and  CAC_14
REMARK    4  A    between atoms: CAC_14  and  NAD_15
REMARK    5  A    between atoms: CAE_16  and  CAG_18
REMARK    6  A    between atoms: CAI_23  and  NAJ_24
REMARK    7  A    between atoms: NAJ_24  and  CAK_25
REMARK                            x       y       z     vdW  Elec       q    Type
REMARK                         _______ _______ _______ _____ _____    ______ ____
ROOT
ATOM      1  NAD 5QL A 702      29.329  -0.828   4.271  0.00  0.00    +0.000 NA
ATOM      2  CAE 5QL A 702      29.746   0.310   3.702  0.00  0.00    +0.000 C 
ATOM      3  OAF 5QL A 702      30.305   0.361   2.600  0.00  0.00    +0.000 OA
ENDROOT
BRANCH   2   4
ATOM      4  CAG 5QL A 702      29.481   1.465   4.454  0.00  0.00    +0.000 A 
ATOM      5  CAH 5QL A 702      28.729   2.499   3.894  0.00  0.00    +0.000 A 
ATOM      6  CAS 5QL A 702      29.925   1.586   5.786  0.00  0.00    +0.000 A 
ATOM      7  CAR 5QL A 702      29.650   2.729   6.542  0.00  0.00    +0.000 A 
ATOM      8  CAQ 5QL A 702      28.920   3.756   5.954  0.00  0.00    +0.000 A 
ATOM      9  CAI 5QL A 702      28.436   3.643   4.644  0.00  0.00    +0.000 A 
BRANCH   9  10
ATOM     10  NAJ 5QL A 702      27.756   4.623   4.021  0.00  0.00    +0.000 NA
BRANCH  10  11
ATOM     11  CAK 5QL A 702      26.802   5.641   4.546  0.00  0.00    +0.000 C 
ATOM     12  CAL 5QL A 702      25.789   6.032   3.456  0.00  0.00    +0.000 C 
ATOM     13  CAM 5QL A 702      24.684   6.833   4.131  0.00  0.00    +0.000 C 
ATOM     14  OAN 5QL A 702      25.236   8.009   4.759  0.00  0.00    +0.000 OA
ATOM     15  CAO 5QL A 702      26.254   7.743   5.736  0.00  0.00    +0.000 C 
ATOM     16  CAP 5QL A 702      27.408   6.930   5.104  0.00  0.00    +0.000 C 
ENDBRANCH  10  11
ENDBRANCH   9  10
ENDBRANCH   2   4
BRANCH   1  17
ATOM     17  CAC 5QL A 702      29.412  -2.144   3.613  0.00  0.00    +0.000 C 
BRANCH  17  18
ATOM     18  CAB 5QL A 702      28.064  -2.229   2.875  0.00  0.00    +0.000 C 
ATOM     19  OAA 5QL A 702      28.011  -1.327   1.784  0.00  0.00    +0.000 OA
BRANCH  18  20
ATOM     20  CAT 5QL A 702      26.859  -2.000   3.867  0.00  0.00    +0.000 C 
BRANCH  20  30
ATOM     21  CAV 5QL A 702      26.431  -0.464   5.706  0.00  0.00    +0.000 C 
ATOM     22  CAW 5QL A 702      26.464   0.977   6.070  0.00  0.00    +0.000 C 
ATOM     23  CAX 5QL A 702      25.524   1.650   5.298  0.00  0.00    +0.000 A 
ATOM     24  CBD 5QL A 702      24.927   2.811   5.819  0.00  0.00    +0.000 A 
ATOM     25  CBC 5QL A 702      23.961   3.501   5.076  0.00  0.00    +0.000 A 
ATOM     26  CBB 5QL A 702      23.584   3.037   3.806  0.00  0.00    +0.000 A 
ATOM     27  CBA 5QL A 702      24.171   1.882   3.281  0.00  0.00    +0.000 A 
ATOM     28  CAY 5QL A 702      25.140   1.189   4.022  0.00  0.00    +0.000 A 
ATOM     29  CAZ 5QL A 702      25.672   0.027   3.462  0.00  0.00    +0.000 C 
ATOM     30  NAU 5QL A 702      26.741  -0.585   4.268  0.00  0.00    +0.000 NA
ENDBRANCH  20  30
ENDBRANCH  18  20
ENDBRANCH  17  18
ENDBRANCH   1  17
TORSDOF 7
ENDMDL
