MODEL 1
REMARK VINA RESULT:       5.4      0.000      0.000
REMARK  Name = ligand_pdbs\6ZV.pdb
REMARK  5 active torsions:
REMARK  status: ('A' for Active; 'I' for Inactive)
REMARK    1  A    between atoms: C1_1  and  N2_7
REMARK    2  A    between atoms: C4_4  and  C16_13
REMARK    3  A    between atoms: C11_14  and  C14_27
REMARK    4  A    between atoms: C14_27  and  N30_34
REMARK    5  A    between atoms: C26_28  and  N22_33
REMARK                            x       y       z     vdW  Elec       q    Type
REMARK                         _______ _______ _______ _____ _____    ______ ____
ROOT
ATOM      1  C2  6ZV A 900      23.831   4.257   4.082  0.00  0.00    +0.000 C 
ATOM      2  C4  6ZV A 900      25.586   2.534   4.231  0.00  0.00    +0.000 C 
ATOM      3  C5  6ZV A 900      24.595   1.632   3.767  0.00  0.00    +0.000 C 
ATOM      4  C6  6ZV A 900      23.288   2.059   3.476  0.00  0.00    +0.000 C 
ATOM      5  C10 6ZV A 900      25.657   7.798   6.532  0.00  0.00    +0.000 A 
ATOM      6  C   6ZV A 900      25.195   6.684   5.822  0.00  0.00    +0.000 A 
ATOM      7  C12 6ZV A 900      23.794   9.073   5.711  0.00  0.00    +0.000 A 
ATOM      8  C11 6ZV A 900      24.961   9.029   6.497  0.00  0.00    +0.000 A 
ATOM      9  C8  6ZV A 900      23.981   6.785   5.020  0.00  0.00    +0.000 A 
ATOM     10  N   6ZV A 900      23.328   7.990   5.011  0.00  0.00    +0.000 NA
ATOM     11  N1  6ZV A 900      22.901   3.350   3.626  0.00  0.00    +0.000 NA
ATOM     12  N3  6ZV A 900      25.174   3.848   4.385  0.00  0.00    +0.000 NA
ATOM     13  N7  6ZV A 900      23.385   5.663   4.227  0.00  0.00    +0.000 NA
ATOM     14  F15 6ZV A 900      24.858   0.298   3.571  0.00  0.00    +0.000 F 
ENDROOT
BRANCH   2  17
ATOM     15  C17 6ZV A 900      27.385   0.722   4.171  0.00  0.00    +0.000 C 
ATOM     16  C21 6ZV A 900      28.121   2.780   5.237  0.00  0.00    +0.000 C 
ATOM     17  C16 6ZV A 900      27.060   2.021   4.560  0.00  0.00    +0.000 C 
ATOM     18  C19 6ZV A 900      29.704   0.893   5.066  0.00  0.00    +0.000 C 
ATOM     19  C18 6ZV A 900      28.704   0.201   4.438  0.00  0.00    +0.000 C 
ATOM     20  C20 6ZV A 900      29.377   2.198   5.458  0.00  0.00    +0.000 C 
ATOM     21  C23 6ZV A 900      30.592  -1.108   4.601  0.00  0.00    +0.000 C 
ATOM     22  C25 6ZV A 900      31.405  -2.347   4.408  0.00  0.00    +0.000 C 
ATOM     23  N24 6ZV A 900      30.932   0.115   5.200  0.00  0.00    +0.000 NA
ATOM     24  N22 6ZV A 900      29.249  -1.014   4.163  0.00  0.00    +0.000 N 
ATOM     25  F29 6ZV A 900      30.424   2.881   6.097  0.00  0.00    +0.000 F 
BRANCH  24  28
ATOM     26  C27 6ZV A 900      27.465  -2.721   4.378  0.00  0.00    +0.000 C 
ATOM     27  C28 6ZV A 900      28.061  -1.608   2.118  0.00  0.00    +0.000 C 
ATOM     28  C26 6ZV A 900      28.554  -2.133   3.469  0.00  0.00    +0.000 C 
ENDBRANCH  24  28
ENDBRANCH   2  17
BRANCH   8  29
ATOM     29  C14 6ZV A 900      25.370  10.299   7.215  0.00  0.00    +0.000 C 
BRANCH  29  35
ATOM     30  N2  6ZV A 900      23.042  12.150  10.293  0.00  0.00    +0.000 NA
ATOM     31  C31 6ZV A 900      24.424  10.308   9.457  0.00  0.00    +0.000 C 
ATOM     32  C35 6ZV A 900      24.086  12.156   8.021  0.00  0.00    +0.000 C 
ATOM     33  C32 6ZV A 900      23.193  10.685  10.274  0.00  0.00    +0.000 C 
ATOM     34  C34 6ZV A 900      22.937  12.653   8.913  0.00  0.00    +0.000 C 
ATOM     35  N30 6ZV A 900      24.194  10.690   8.044  0.00  0.00    +0.000 NA
BRANCH  30  36
ATOM     36  C1  6ZV A 900      24.318  12.705  10.816  0.00  0.00    +0.000 C 
ATOM     37  C3  6ZV A 900      24.194  12.707  12.329  0.00  0.00    +0.000 C 
ENDBRANCH  30  36
ENDBRANCH  29  35
ENDBRANCH   8  29
TORSDOF 5
ENDMDL
