MODEL 1
REMARK VINA RESULT:      -7.6      0.000      0.000
REMARK  Name = ligand_pdbs\77U.pdb
REMARK  2 active torsions:
REMARK  status: ('A' for Active; 'I' for Inactive)
REMARK    1  A    between atoms: C10_4  and  N9_9
REMARK    2  A    between atoms: C13_5  and  C14_12
REMARK                            x       y       z     vdW  Elec       q    Type
REMARK                         _______ _______ _______ _____ _____    ______ ____
ROOT
ATOM      1  C10 77U A1003      26.859   2.815   4.172  0.00  0.00    +0.000 A 
ATOM      2  C13 77U A1003      26.297   5.542   4.364  0.00  0.00    +0.000 A 
ATOM      3  C11 77U A1003      27.882   3.769   4.055  0.00  0.00    +0.000 A 
ATOM      4  C12 77U A1003      27.616   5.116   4.146  0.00  0.00    +0.000 A 
ATOM      5  C16 77U A1003      25.259   4.594   4.480  0.00  0.00    +0.000 A 
ATOM      6 CL1  77U A1003      23.615   5.099   4.743  0.00  0.00    +0.000 Cl
ATOM      7  C18 77U A1003      25.537   3.245   4.390  0.00  0.00    +0.000 A 
ATOM      8  C19 77U A1003      24.389   2.275   4.538  0.00  0.00    +0.000 C 
ENDROOT
BRANCH   1  15
ATOM      9  C4  77U A1003      28.957  -0.125   3.619  0.00  0.00    +0.000 C 
ATOM     10  C7  77U A1003      27.705  -0.459   2.783  0.00  0.00    +0.000 C 
ATOM     11  C8  77U A1003      26.994   0.901   2.720  0.00  0.00    +0.000 C 
ATOM     12  C1  77U A1003      28.529   0.710   6.022  0.00  0.00    +0.000 C 
ATOM     13  C2  77U A1003      28.542   1.066   4.532  0.00  0.00    +0.000 C 
ATOM     14  O6  77U A1003      29.369  -1.285   4.349  0.00  0.00    +0.000 OA
ATOM     15  N9  77U A1003      27.163   1.448   4.094  0.00  0.00    +0.000 N 
ENDBRANCH   1  15
BRANCH   2  16
ATOM     16  C14 77U A1003      26.016   6.944   4.448  0.00  0.00    +0.000 C 
ATOM     17  N15 77U A1003      25.839   8.060   4.601  0.00  0.00    +0.000 NA
ENDBRANCH   2  16
TORSDOF 2
ENDMDL
MODEL 2
REMARK VINA RESULT:      -7.4      3.377      6.086
REMARK  Name = ligand_pdbs\77U.pdb
REMARK  2 active torsions:
REMARK  status: ('A' for Active; 'I' for Inactive)
REMARK    1  A    between atoms: C10_4  and  N9_9
REMARK    2  A    between atoms: C13_5  and  C14_12
REMARK                            x       y       z     vdW  Elec       q    Type
REMARK                         _______ _______ _______ _____ _____    ______ ____
ROOT
ATOM      1  C10 77U A1003      26.972   3.061   4.492  0.00  0.00    +0.000 A 
ATOM      2  C13 77U A1003      27.601   0.476   3.651  0.00  0.00    +0.000 A 
ATOM      3  C11 77U A1003      26.414   2.533   3.318  0.00  0.00    +0.000 A 
ATOM      4  C12 77U A1003      26.718   1.259   2.892  0.00  0.00    +0.000 A 
ATOM      5  C16 77U A1003      28.171   0.995   4.831  0.00  0.00    +0.000 A 
ATOM      6 CL1  77U A1003      29.273   0.044   5.783  0.00  0.00    +0.000 Cl
ATOM      7  C18 77U A1003      27.857   2.273   5.250  0.00  0.00    +0.000 A 
ATOM      8  C19 77U A1003      28.486   2.771   6.530  0.00  0.00    +0.000 C 
ENDROOT
BRANCH   1  15
ATOM      9  C4  77U A1003      25.555   6.416   4.190  0.00  0.00    +0.000 C 
ATOM     10  C7  77U A1003      26.952   6.706   4.774  0.00  0.00    +0.000 C 
ATOM     11  C8  77U A1003      27.668   5.364   4.566  0.00  0.00    +0.000 C 
ATOM     12  C1  77U A1003      24.201   4.552   5.353  0.00  0.00    +0.000 C 
ATOM     13  C2  77U A1003      25.335   4.886   4.378  0.00  0.00    +0.000 C 
ATOM     14  O6  77U A1003      24.577   7.216   4.862  0.00  0.00    +0.000 OA
ATOM     15  N9  77U A1003      26.629   4.355   4.911  0.00  0.00    +0.000 N 
ENDBRANCH   1  15
BRANCH   2  16
ATOM     16  C14 77U A1003      27.927  -0.847   3.205  0.00  0.00    +0.000 C 
ATOM     17  N15 77U A1003      28.182  -1.927   2.943  0.00  0.00    +0.000 NA
ENDBRANCH   2  16
TORSDOF 2
ENDMDL
MODEL 3
REMARK VINA RESULT:      -7.1      1.820      2.704
REMARK  Name = ligand_pdbs\77U.pdb
REMARK  2 active torsions:
REMARK  status: ('A' for Active; 'I' for Inactive)
REMARK    1  A    between atoms: C10_4  and  N9_9
REMARK    2  A    between atoms: C13_5  and  C14_12
REMARK                            x       y       z     vdW  Elec       q    Type
REMARK                         _______ _______ _______ _____ _____    ______ ____
ROOT
ATOM      1  C10 77U A1003      26.740   1.493   4.655  0.00  0.00    +0.000 A 
ATOM      2  C13 77U A1003      25.403   3.937   4.502  0.00  0.00    +0.000 A 
ATOM      3  C11 77U A1003      25.412   1.557   4.208  0.00  0.00    +0.000 A 
ATOM      4  C12 77U A1003      24.741   2.757   4.130  0.00  0.00    +0.000 A 
ATOM      5  C16 77U A1003      26.737   3.886   4.956  0.00  0.00    +0.000 A 
ATOM      6 CL1  77U A1003      27.575   5.336   5.428  0.00  0.00    +0.000 Cl
ATOM      7  C18 77U A1003      27.401   2.678   5.027  0.00  0.00    +0.000 A 
ATOM      8  C19 77U A1003      28.833   2.686   5.506  0.00  0.00    +0.000 C 
ENDROOT
BRANCH   1  15
ATOM      9  C4  77U A1003      27.760  -1.814   3.481  0.00  0.00    +0.000 C 
ATOM     10  C7  77U A1003      27.318  -2.107   4.929  0.00  0.00    +0.000 C 
ATOM     11  C8  77U A1003      26.565  -0.820   5.297  0.00  0.00    +0.000 C 
ATOM     12  C1  77U A1003      29.336   0.202   3.160  0.00  0.00    +0.000 C 
ATOM     13  C2  77U A1003      27.897  -0.266   3.393  0.00  0.00    +0.000 C 
ATOM     14  O6  77U A1003      28.980  -2.509   3.202  0.00  0.00    +0.000 OA
ATOM     15  N9  77U A1003      27.404   0.258   4.706  0.00  0.00    +0.000 N 
ENDBRANCH   1  15
BRANCH   2  16
ATOM     16  C14 77U A1003      24.704   5.186   4.432  0.00  0.00    +0.000 C 
ATOM     17  N15 77U A1003      24.224   6.215   4.324  0.00  0.00    +0.000 NA
ENDBRANCH   2  16
TORSDOF 2
ENDMDL
MODEL 4
REMARK VINA RESULT:      -6.9      3.501      5.814
REMARK  Name = ligand_pdbs\77U.pdb
REMARK  2 active torsions:
REMARK  status: ('A' for Active; 'I' for Inactive)
REMARK    1  A    between atoms: C10_4  and  N9_9
REMARK    2  A    between atoms: C13_5  and  C14_12
REMARK                            x       y       z     vdW  Elec       q    Type
REMARK                         _______ _______ _______ _____ _____    ______ ____
ROOT
ATOM      1  C10 77U A1003      27.066   3.015   4.994  0.00  0.00    +0.000 A 
ATOM      2  C13 77U A1003      29.298   1.605   5.899  0.00  0.00    +0.000 A 
ATOM      3  C11 77U A1003      27.742   3.411   6.158  0.00  0.00    +0.000 A 
ATOM      4  C12 77U A1003      28.843   2.722   6.615  0.00  0.00    +0.000 A 
ATOM      5  C16 77U A1003      28.626   1.194   4.729  0.00  0.00    +0.000 A 
ATOM      6 CL1  77U A1003      29.169  -0.193   3.829  0.00  0.00    +0.000 Cl
ATOM      7  C18 77U A1003      27.525   1.893   4.278  0.00  0.00    +0.000 A 
ATOM      8  C19 77U A1003      26.855   1.417   3.011  0.00  0.00    +0.000 C 
ENDROOT
BRANCH   1  15
ATOM      9  C4  77U A1003      24.715   5.810   4.887  0.00  0.00    +0.000 C 
ATOM     10  C7  77U A1003      23.769   4.592   4.919  0.00  0.00    +0.000 C 
ATOM     11  C8  77U A1003      24.724   3.460   5.323  0.00  0.00    +0.000 C 
ATOM     12  C1  77U A1003      26.653   5.699   3.188  0.00  0.00    +0.000 C 
ATOM     13  C2  77U A1003      26.122   5.235   4.547  0.00  0.00    +0.000 C 
ATOM     14  O6  77U A1003      24.243   6.760   3.926  0.00  0.00    +0.000 OA
ATOM     15  N9  77U A1003      25.959   3.747   4.542  0.00  0.00    +0.000 N 
ENDBRANCH   1  15
BRANCH   2  16
ATOM     16  C14 77U A1003      30.438   0.879   6.378  0.00  0.00    +0.000 C 
ATOM     17  N15 77U A1003      31.328   0.343   6.846  0.00  0.00    +0.000 NA
ENDBRANCH   2  16
TORSDOF 2
ENDMDL
MODEL 5
REMARK VINA RESULT:      -6.4      3.305      5.906
REMARK  Name = ligand_pdbs\77U.pdb
REMARK  2 active torsions:
REMARK  status: ('A' for Active; 'I' for Inactive)
REMARK    1  A    between atoms: C10_4  and  N9_9
REMARK    2  A    between atoms: C13_5  and  C14_12
REMARK                            x       y       z     vdW  Elec       q    Type
REMARK                         _______ _______ _______ _____ _____    ______ ____
ROOT
ATOM      1  C10 77U A1003      26.807   2.235   4.227  0.00  0.00    +0.000 A 
ATOM      2  C13 77U A1003      28.634   0.128   4.130  0.00  0.00    +0.000 A 
ATOM      3  C11 77U A1003      27.857   2.153   5.154  0.00  0.00    +0.000 A 
ATOM      4  C12 77U A1003      28.763   1.117   5.116  0.00  0.00    +0.000 A 
ATOM      5  C16 77U A1003      27.581   0.197   3.194  0.00  0.00    +0.000 A 
ATOM      6 CL1  77U A1003      27.397  -1.022   1.966  0.00  0.00    +0.000 Cl
ATOM      7  C18 77U A1003      26.679   1.241   3.239  0.00  0.00    +0.000 A 
ATOM      8  C19 77U A1003      25.581   1.272   2.203  0.00  0.00    +0.000 C 
ENDROOT
BRANCH   1  15
ATOM      9  C4  77U A1003      25.459   5.421   5.405  0.00  0.00    +0.000 C 
ATOM     10  C7  77U A1003      24.213   4.513   5.432  0.00  0.00    +0.000 C 
ATOM     11  C8  77U A1003      24.836   3.116   5.291  0.00  0.00    +0.000 C 
ATOM     12  C1  77U A1003      26.874   5.346   3.248  0.00  0.00    +0.000 C 
ATOM     13  C2  77U A1003      26.519   4.648   4.566  0.00  0.00    +0.000 C 
ATOM     14  O6  77U A1003      25.114   6.694   4.850  0.00  0.00    +0.000 OA
ATOM     15  N9  77U A1003      25.910   3.311   4.278  0.00  0.00    +0.000 N 
ENDBRANCH   1  15
BRANCH   2  16
ATOM     16  C14 77U A1003      29.570  -0.957   4.094  0.00  0.00    +0.000 C 
ATOM     17  N15 77U A1003      30.308  -1.816   3.969  0.00  0.00    +0.000 NA
ENDBRANCH   2  16
TORSDOF 2
ENDMDL
MODEL 6
REMARK VINA RESULT:      -6.1      3.207      5.851
REMARK  Name = ligand_pdbs\77U.pdb
REMARK  2 active torsions:
REMARK  status: ('A' for Active; 'I' for Inactive)
REMARK    1  A    between atoms: C10_4  and  N9_9
REMARK    2  A    between atoms: C13_5  and  C14_12
REMARK                            x       y       z     vdW  Elec       q    Type
REMARK                         _______ _______ _______ _____ _____    ______ ____
ROOT
ATOM      1  C10 77U A1003      27.729   2.771   4.844  0.00  0.00    +0.000 A 
ATOM      2  C13 77U A1003      28.920   0.300   4.332  0.00  0.00    +0.000 A 
ATOM      3  C11 77U A1003      28.809   2.320   5.619  0.00  0.00    +0.000 A 
ATOM      4  C12 77U A1003      29.403   1.102   5.377  0.00  0.00    +0.000 A 
ATOM      5  C16 77U A1003      27.834   0.739   3.547  0.00  0.00    +0.000 A 
ATOM      6 CL1  77U A1003      27.215  -0.242   2.251  0.00  0.00    +0.000 Cl
ATOM      7  C18 77U A1003      27.247   1.964   3.796  0.00  0.00    +0.000 A 
ATOM      8  C19 77U A1003      26.098   2.390   2.914  0.00  0.00    +0.000 C 
ENDROOT
BRANCH   1  15
ATOM      9  C4  77U A1003      25.462   5.589   4.324  0.00  0.00    +0.000 C 
ATOM     10  C7  77U A1003      26.825   6.294   4.476  0.00  0.00    +0.000 C 
ATOM     11  C8  77U A1003      27.806   5.121   4.333  0.00  0.00    +0.000 C 
ATOM     12  C1  77U A1003      24.902   3.803   6.100  0.00  0.00    +0.000 C 
ATOM     13  C2  77U A1003      25.688   4.133   4.827  0.00  0.00    +0.000 C 
ATOM     14  O6  77U A1003      24.468   6.299   5.069  0.00  0.00    +0.000 OA
ATOM     15  N9  77U A1003      27.156   4.024   5.101  0.00  0.00    +0.000 N 
ENDBRANCH   1  15
BRANCH   2  16
ATOM     16  C14 77U A1003      29.530  -0.974   4.084  0.00  0.00    +0.000 C 
ATOM     17  N15 77U A1003      29.973  -1.984   3.798  0.00  0.00    +0.000 NA
ENDBRANCH   2  16
TORSDOF 2
ENDMDL
MODEL 7
REMARK VINA RESULT:      -6.0      1.434      1.570
REMARK  Name = ligand_pdbs\77U.pdb
REMARK  2 active torsions:
REMARK  status: ('A' for Active; 'I' for Inactive)
REMARK    1  A    between atoms: C10_4  and  N9_9
REMARK    2  A    between atoms: C13_5  and  C14_12
REMARK                            x       y       z     vdW  Elec       q    Type
REMARK                         _______ _______ _______ _____ _____    ______ ____
ROOT
ATOM      1  C10 77U A1003      27.371   1.865   3.990  0.00  0.00    +0.000 A 
ATOM      2  C13 77U A1003      27.214   4.567   4.668  0.00  0.00    +0.000 A 
ATOM      3  C11 77U A1003      28.529   2.597   4.294  0.00  0.00    +0.000 A 
ATOM      4  C12 77U A1003      28.464   3.930   4.628  0.00  0.00    +0.000 A 
ATOM      5  C16 77U A1003      26.042   3.844   4.362  0.00  0.00    +0.000 A 
ATOM      6 CL1  77U A1003      24.483   4.614   4.400  0.00  0.00    +0.000 Cl
ATOM      7  C18 77U A1003      26.119   2.506   4.031  0.00  0.00    +0.000 A 
ATOM      8  C19 77U A1003      24.831   1.778   3.729  0.00  0.00    +0.000 C 
ENDROOT
BRANCH   1  15
ATOM      9  C4  77U A1003      28.546  -1.580   4.320  0.00  0.00    +0.000 C 
ATOM     10  C7  77U A1003      28.730  -1.318   2.811  0.00  0.00    +0.000 C 
ATOM     11  C8  77U A1003      28.585   0.209   2.734  0.00  0.00    +0.000 C 
ATOM     12  C1  77U A1003      26.267  -0.901   5.321  0.00  0.00    +0.000 C 
ATOM     13  C2  77U A1003      27.639  -0.424   4.835  0.00  0.00    +0.000 C 
ATOM     14  O6  77U A1003      27.977  -2.878   4.516  0.00  0.00    +0.000 OA
ATOM     15  N9  77U A1003      27.466   0.502   3.671  0.00  0.00    +0.000 N 
ENDBRANCH   1  15
BRANCH   2  16
ATOM     16  C14 77U A1003      27.144   5.958   5.006  0.00  0.00    +0.000 C 
ATOM     17  N15 77U A1003      27.164   7.079   5.214  0.00  0.00    +0.000 NA
ENDBRANCH   2  16
TORSDOF 2
ENDMDL
MODEL 8
REMARK VINA RESULT:      -5.7      3.313      6.017
REMARK  Name = ligand_pdbs\77U.pdb
REMARK  2 active torsions:
REMARK  status: ('A' for Active; 'I' for Inactive)
REMARK    1  A    between atoms: C10_4  and  N9_9
REMARK    2  A    between atoms: C13_5  and  C14_12
REMARK                            x       y       z     vdW  Elec       q    Type
REMARK                         _______ _______ _______ _____ _____    ______ ____
ROOT
ATOM      1  C10 77U A1003      26.111   2.468   3.825  0.00  0.00    +0.000 A 
ATOM      2  C13 77U A1003      27.463   0.027   3.862  0.00  0.00    +0.000 A 
ATOM      3  C11 77U A1003      25.741   1.429   2.957  0.00  0.00    +0.000 A 
ATOM      4  C12 77U A1003      26.402   0.221   2.965  0.00  0.00    +0.000 A 
ATOM      5  C16 77U A1003      27.847   1.063   4.739  0.00  0.00    +0.000 A 
ATOM      6 CL1  77U A1003      29.164   0.846   5.855  0.00  0.00    +0.000 Cl
ATOM      7  C18 77U A1003      27.176   2.269   4.724  0.00  0.00    +0.000 A 
ATOM      8  C19 77U A1003      27.621   3.337   5.694  0.00  0.00    +0.000 C 
ENDROOT
BRANCH   1  15
ATOM      9  C4  77U A1003      25.044   5.741   5.050  0.00  0.00    +0.000 C 
ATOM     10  C7  77U A1003      23.700   5.072   4.698  0.00  0.00    +0.000 C 
ATOM     11  C8  77U A1003      24.110   3.602   4.531  0.00  0.00    +0.000 C 
ATOM     12  C1  77U A1003      26.894   5.583   3.259  0.00  0.00    +0.000 C 
ATOM     13  C2  77U A1003      26.136   4.859   4.376  0.00  0.00    +0.000 C 
ATOM     14  O6  77U A1003      25.043   7.095   4.589  0.00  0.00    +0.000 OA
ATOM     15  N9  77U A1003      25.408   3.681   3.806  0.00  0.00    +0.000 N 
ENDBRANCH   1  15
BRANCH   2  16
ATOM     16  C14 77U A1003      28.160  -1.226   3.867  0.00  0.00    +0.000 C 
ATOM     17  N15 77U A1003      28.744  -2.201   3.780  0.00  0.00    +0.000 NA
ENDBRANCH   2  16
TORSDOF 2
ENDMDL
MODEL 9
REMARK VINA RESULT:      -5.3      2.169      2.744
REMARK  Name = ligand_pdbs\77U.pdb
REMARK  2 active torsions:
REMARK  status: ('A' for Active; 'I' for Inactive)
REMARK    1  A    between atoms: C10_4  and  N9_9
REMARK    2  A    between atoms: C13_5  and  C14_12
REMARK                            x       y       z     vdW  Elec       q    Type
REMARK                         _______ _______ _______ _____ _____    ______ ____
ROOT
ATOM      1  C10 77U A1003      27.782   1.991   3.969  0.00  0.00    +0.000 A 
ATOM      2  C13 77U A1003      27.551   4.689   4.640  0.00  0.00    +0.000 A 
ATOM      3  C11 77U A1003      27.199   2.905   3.078  0.00  0.00    +0.000 A 
ATOM      4  C12 77U A1003      27.078   4.238   3.399  0.00  0.00    +0.000 A 
ATOM      5  C16 77U A1003      28.137   3.782   5.546  0.00  0.00    +0.000 A 
ATOM      6 CL1  77U A1003      28.724   4.318   7.093  0.00  0.00    +0.000 Cl
ATOM      7  C18 77U A1003      28.256   2.447   5.213  0.00  0.00    +0.000 A 
ATOM      8  C19 77U A1003      28.905   1.524   6.216  0.00  0.00    +0.000 C 
ENDROOT
BRANCH   1  15
ATOM      9  C4  77U A1003      28.080  -1.610   4.513  0.00  0.00    +0.000 C 
ATOM     10  C7  77U A1003      29.220  -1.339   3.510  0.00  0.00    +0.000 C 
ATOM     11  C8  77U A1003      29.328   0.192   3.559  0.00  0.00    +0.000 C 
ATOM     12  C1  77U A1003      25.785  -0.587   3.928  0.00  0.00    +0.000 C 
ATOM     13  C2  77U A1003      27.189  -0.334   4.485  0.00  0.00    +0.000 C 
ATOM     14  O6  77U A1003      27.380  -2.800   4.134  0.00  0.00    +0.000 OA
ATOM     15  N9  77U A1003      27.909   0.642   3.607  0.00  0.00    +0.000 N 
ENDBRANCH   1  15
BRANCH   2  16
ATOM     16  C14 77U A1003      27.417   6.075   4.982  0.00  0.00    +0.000 C 
ATOM     17  N15 77U A1003      27.235   7.152   5.309  0.00  0.00    +0.000 NA
ENDBRANCH   2  16
TORSDOF 2
ENDMDL
