MODEL 1
REMARK VINA RESULT:      -7.0      0.000      0.000
REMARK  Name = ligand_pdbs\81X.pdb
REMARK  2 active torsions:
REMARK  status: ('A' for Active; 'I' for Inactive)
REMARK    1  A    between atoms: C5_2  and  C6_3
REMARK    2  A    between atoms: C6_3  and  N7_12
REMARK                            x       y       z     vdW  Elec       q    Type
REMARK                         _______ _______ _______ _____ _____    ______ ____
ROOT
ATOM      1  N3  81X A 704      28.262   4.906   4.237  0.00  0.00    +0.000 N 
ATOM      2  C5  81X A 704      26.404   6.246   4.869  0.00  0.00    +0.000 A 
ATOM      3  C8  81X A 704      25.487   5.108   4.632  0.00  0.00    +0.000 A 
ATOM      4  C10 81X A 704      23.288   4.088   4.587  0.00  0.00    +0.000 A 
ATOM      5  C13 81X A 704      26.062   3.859   4.184  0.00  0.00    +0.000 A 
ATOM      6  C11 81X A 704      23.845   2.881   4.152  0.00  0.00    +0.000 A 
ATOM      7  C12 81X A 704      25.214   2.756   3.950  0.00  0.00    +0.000 A 
ATOM      8  C2  81X A 704      27.530   3.793   3.988  0.00  0.00    +0.000 A 
ATOM      9  C9  81X A 704      24.086   5.188   4.825  0.00  0.00    +0.000 A 
ATOM     10  N4  81X A 704      27.687   6.103   4.669  0.00  0.00    +0.000 NA
ATOM     11  O1  81X A 704      28.089   2.780   3.610  0.00  0.00    +0.000 OA
ATOM     12  H3  81X A 704      29.254   4.868   4.106  0.00  0.00    +0.000 HD
ENDROOT
BRANCH   2  13
ATOM     13  C6  81X A 704      25.923   7.590   5.335  0.00  0.00    +0.000 C 
BRANCH  13  14
ATOM     14  N7  81X A 704      25.657   8.385   4.156  0.00  0.00    +0.000 N 
ATOM     15  H73 81X A 704      25.618   9.353   4.408  0.00  0.00    +0.000 HD
ATOM     16  H72 81X A 704      24.782   8.107   3.758  0.00  0.00    +0.000 HD
ATOM     17  H71 81X A 704      26.388   8.243   3.487  0.00  0.00    +0.000 HD
ENDBRANCH  13  14
ENDBRANCH   2  13
TORSDOF 2
ENDMDL
MODEL 2
REMARK VINA RESULT:      -6.6      2.725      4.287
REMARK  Name = ligand_pdbs\81X.pdb
REMARK  2 active torsions:
REMARK  status: ('A' for Active; 'I' for Inactive)
REMARK    1  A    between atoms: C5_2  and  C6_3
REMARK    2  A    between atoms: C6_3  and  N7_12
REMARK                            x       y       z     vdW  Elec       q    Type
REMARK                         _______ _______ _______ _____ _____    ______ ____
ROOT
ATOM      1  N3  81X A 704      24.377   2.758   4.716  0.00  0.00    +0.000 N 
ATOM      2  C5  81X A 704      26.660   3.283   5.115  0.00  0.00    +0.000 A 
ATOM      3  C8  81X A 704      26.358   4.729   5.009  0.00  0.00    +0.000 A 
ATOM      4  C10 81X A 704      26.992   7.068   5.044  0.00  0.00    +0.000 A 
ATOM      5  C13 81X A 704      24.990   5.116   4.748  0.00  0.00    +0.000 A 
ATOM      6  C11 81X A 704      25.668   7.442   4.790  0.00  0.00    +0.000 A 
ATOM      7  C12 81X A 704      24.671   6.486   4.642  0.00  0.00    +0.000 A 
ATOM      8  C2  81X A 704      23.975   4.047   4.600  0.00  0.00    +0.000 A 
ATOM      9  C9  81X A 704      27.342   5.739   5.153  0.00  0.00    +0.000 A 
ATOM     10  N4  81X A 704      25.704   2.405   4.969  0.00  0.00    +0.000 NA
ATOM     11  O1  81X A 704      22.804   4.291   4.376  0.00  0.00    +0.000 OA
ATOM     12  H3  81X A 704      23.697   2.030   4.618  0.00  0.00    +0.000 HD
ENDROOT
BRANCH   2  13
ATOM     13  C6  81X A 704      28.043   2.762   5.384  0.00  0.00    +0.000 C 
BRANCH  13  14
ATOM     14  N7  81X A 704      28.664   2.509   4.102  0.00  0.00    +0.000 N 
ATOM     15  H73 81X A 704      29.429   1.875   4.223  0.00  0.00    +0.000 HD
ATOM     16  H72 81X A 704      29.000   3.370   3.719  0.00  0.00    +0.000 HD
ATOM     17  H71 81X A 704      27.992   2.106   3.480  0.00  0.00    +0.000 HD
ENDBRANCH  13  14
ENDBRANCH   2  13
TORSDOF 2
ENDMDL
MODEL 3
REMARK VINA RESULT:      -6.5      1.782      3.430
REMARK  Name = ligand_pdbs\81X.pdb
REMARK  2 active torsions:
REMARK  status: ('A' for Active; 'I' for Inactive)
REMARK    1  A    between atoms: C5_2  and  C6_3
REMARK    2  A    between atoms: C6_3  and  N7_12
REMARK                            x       y       z     vdW  Elec       q    Type
REMARK                         _______ _______ _______ _____ _____    ______ ____
ROOT
ATOM      1  N3  81X A 704      27.547   6.192   4.860  0.00  0.00    +0.000 N 
ATOM      2  C5  81X A 704      27.429   3.856   4.441  0.00  0.00    +0.000 A 
ATOM      3  C8  81X A 704      25.950   3.919   4.438  0.00  0.00    +0.000 A 
ATOM      4  C10 81X A 704      23.752   2.915   4.238  0.00  0.00    +0.000 A 
ATOM      5  C13 81X A 704      25.328   5.205   4.660  0.00  0.00    +0.000 A 
ATOM      6  C11 81X A 704      23.152   4.160   4.454  0.00  0.00    +0.000 A 
ATOM      7  C12 81X A 704      23.920   5.298   4.664  0.00  0.00    +0.000 A 
ATOM      8  C2  81X A 704      26.205   6.380   4.878  0.00  0.00    +0.000 A 
ATOM      9  C9  81X A 704      25.126   2.786   4.229  0.00  0.00    +0.000 A 
ATOM     10  N4  81X A 704      28.128   4.941   4.643  0.00  0.00    +0.000 NA
ATOM     11  O1  81X A 704      25.759   7.495   5.075  0.00  0.00    +0.000 OA
ATOM     12  H3  81X A 704      28.146   6.981   5.006  0.00  0.00    +0.000 HD
ENDROOT
BRANCH   2  13
ATOM     13  C6  81X A 704      28.185   2.577   4.221  0.00  0.00    +0.000 C 
BRANCH  13  14
ATOM     14  N7  81X A 704      29.431   2.683   4.948  0.00  0.00    +0.000 N 
ATOM     15  H73 81X A 704      29.267   2.503   5.919  0.00  0.00    +0.000 HD
ATOM     16  H72 81X A 704      29.804   3.605   4.837  0.00  0.00    +0.000 HD
ATOM     17  H71 81X A 704      30.084   2.013   4.590  0.00  0.00    +0.000 HD
ENDBRANCH  13  14
ENDBRANCH   2  13
TORSDOF 2
ENDMDL
MODEL 4
REMARK VINA RESULT:      -6.3      3.069      4.763
REMARK  Name = ligand_pdbs\81X.pdb
REMARK  2 active torsions:
REMARK  status: ('A' for Active; 'I' for Inactive)
REMARK    1  A    between atoms: C5_2  and  C6_3
REMARK    2  A    between atoms: C6_3  and  N7_12
REMARK                            x       y       z     vdW  Elec       q    Type
REMARK                         _______ _______ _______ _____ _____    ______ ____
ROOT
ATOM      1  N3  81X A 704      28.924   3.807   4.944  0.00  0.00    +0.000 N 
ATOM      2  C5  81X A 704      28.670   1.540   5.610  0.00  0.00    +0.000 A 
ATOM      3  C8  81X A 704      27.536   1.380   4.670  0.00  0.00    +0.000 A 
ATOM      4  C10 81X A 704      25.775   0.084   3.622  0.00  0.00    +0.000 A 
ATOM      5  C13 81X A 704      27.149   2.524   3.876  0.00  0.00    +0.000 A 
ATOM      6  C11 81X A 704      25.401   1.192   2.856  0.00  0.00    +0.000 A 
ATOM      7  C12 81X A 704      26.073   2.403   2.972  0.00  0.00    +0.000 A 
ATOM      8  C2  81X A 704      27.906   3.786   4.049  0.00  0.00    +0.000 A 
ATOM      9  C9  81X A 704      26.822   0.165   4.517  0.00  0.00    +0.000 A 
ATOM     10  N4  81X A 704      29.282   2.690   5.702  0.00  0.00    +0.000 NA
ATOM     11  O1  81X A 704      27.640   4.794   3.421  0.00  0.00    +0.000 OA
ATOM     12  H3  81X A 704      29.440   4.656   5.066  0.00  0.00    +0.000 HD
ENDROOT
BRANCH   2  13
ATOM     13  C6  81X A 704      29.160   0.423   6.484  0.00  0.00    +0.000 C 
BRANCH  13  14
ATOM     14  N7  81X A 704      30.466   0.036   5.996  0.00  0.00    +0.000 N 
ATOM     15  H73 81X A 704      30.375  -0.760   5.396  0.00  0.00    +0.000 HD
ATOM     16  H72 81X A 704      31.057  -0.194   6.770  0.00  0.00    +0.000 HD
ATOM     17  H71 81X A 704      30.868   0.796   5.483  0.00  0.00    +0.000 HD
ENDBRANCH  13  14
ENDBRANCH   2  13
TORSDOF 2
ENDMDL
MODEL 5
REMARK VINA RESULT:      -6.3      3.099      5.024
REMARK  Name = ligand_pdbs\81X.pdb
REMARK  2 active torsions:
REMARK  status: ('A' for Active; 'I' for Inactive)
REMARK    1  A    between atoms: C5_2  and  C6_3
REMARK    2  A    between atoms: C6_3  and  N7_12
REMARK                            x       y       z     vdW  Elec       q    Type
REMARK                         _______ _______ _______ _____ _____    ______ ____
ROOT
ATOM      1  N3  81X A 704      29.292   2.885   4.957  0.00  0.00    +0.000 N 
ATOM      2  C5  81X A 704      28.721   0.857   3.857  0.00  0.00    +0.000 A 
ATOM      3  C8  81X A 704      27.299   1.267   3.814  0.00  0.00    +0.000 A 
ATOM      4  C10 81X A 704      24.972   0.910   3.236  0.00  0.00    +0.000 A 
ATOM      5  C13 81X A 704      26.947   2.548   4.384  0.00  0.00    +0.000 A 
ATOM      6  C11 81X A 704      24.633   2.150   3.788  0.00  0.00    +0.000 A 
ATOM      7  C12 81X A 704      25.601   2.967   4.358  0.00  0.00    +0.000 A 
ATOM      8  C2  81X A 704      28.028   3.372   4.977  0.00  0.00    +0.000 A 
ATOM      9  C9  81X A 704      26.278   0.467   3.244  0.00  0.00    +0.000 A 
ATOM     10  N4  81X A 704      29.611   1.644   4.402  0.00  0.00    +0.000 NA
ATOM     11  O1  81X A 704      27.813   4.460   5.479  0.00  0.00    +0.000 OA
ATOM     12  H3  81X A 704      30.027   3.436   5.356  0.00  0.00    +0.000 HD
ENDROOT
BRANCH   2  13
ATOM     13  C6  81X A 704      29.204  -0.450   3.297  0.00  0.00    +0.000 C 
BRANCH  13  14
ATOM     14  N7  81X A 704      29.955  -1.114   4.340  0.00  0.00    +0.000 N 
ATOM     15  H73 81X A 704      30.711  -0.525   4.632  0.00  0.00    +0.000 HD
ATOM     16  H72 81X A 704      30.319  -1.977   3.990  0.00  0.00    +0.000 HD
ATOM     17  H71 81X A 704      29.354  -1.295   5.120  0.00  0.00    +0.000 HD
ENDBRANCH  13  14
ENDBRANCH   2  13
TORSDOF 2
ENDMDL
MODEL 6
REMARK VINA RESULT:      -6.3      2.002      3.708
REMARK  Name = ligand_pdbs\81X.pdb
REMARK  2 active torsions:
REMARK  status: ('A' for Active; 'I' for Inactive)
REMARK    1  A    between atoms: C5_2  and  C6_3
REMARK    2  A    between atoms: C6_3  and  N7_12
REMARK                            x       y       z     vdW  Elec       q    Type
REMARK                         _______ _______ _______ _____ _____    ______ ____
ROOT
ATOM      1  N3  81X A 704      28.356   4.592   4.202  0.00  0.00    +0.000 N 
ATOM      2  C5  81X A 704      27.052   2.644   3.811  0.00  0.00    +0.000 A 
ATOM      3  C8  81X A 704      25.814   3.398   4.112  0.00  0.00    +0.000 A 
ATOM      4  C10 81X A 704      23.409   3.576   4.364  0.00  0.00    +0.000 A 
ATOM      5  C13 81X A 704      25.941   4.795   4.460  0.00  0.00    +0.000 A 
ATOM      6  C11 81X A 704      23.534   4.927   4.702  0.00  0.00    +0.000 A 
ATOM      7  C12 81X A 704      24.780   5.541   4.753  0.00  0.00    +0.000 A 
ATOM      8  C2  81X A 704      27.299   5.388   4.496  0.00  0.00    +0.000 A 
ATOM      9  C9  81X A 704      24.523   2.816   4.073  0.00  0.00    +0.000 A 
ATOM     10  N4  81X A 704      28.211   3.244   3.868  0.00  0.00    +0.000 NA
ATOM     11  O1  81X A 704      27.490   6.556   4.783  0.00  0.00    +0.000 OA
ATOM     12  H3  81X A 704      29.276   4.986   4.224  0.00  0.00    +0.000 HD
ENDROOT
BRANCH   2  13
ATOM     13  C6  81X A 704      27.044   1.190   3.437  0.00  0.00    +0.000 C 
BRANCH  13  14
ATOM     14  N7  81X A 704      28.421   0.784   3.257  0.00  0.00    +0.000 N 
ATOM     15  H73 81X A 704      28.659   0.098   3.946  0.00  0.00    +0.000 HD
ATOM     16  H72 81X A 704      29.019   1.580   3.356  0.00  0.00    +0.000 HD
ATOM     17  H71 81X A 704      28.535   0.392   2.343  0.00  0.00    +0.000 HD
ENDBRANCH  13  14
ENDBRANCH   2  13
TORSDOF 2
ENDMDL
MODEL 7
REMARK VINA RESULT:      -6.2      4.170      5.079
REMARK  Name = ligand_pdbs\81X.pdb
REMARK  2 active torsions:
REMARK  status: ('A' for Active; 'I' for Inactive)
REMARK    1  A    between atoms: C5_2  and  C6_3
REMARK    2  A    between atoms: C6_3  and  N7_12
REMARK                            x       y       z     vdW  Elec       q    Type
REMARK                         _______ _______ _______ _____ _____    ______ ____
ROOT
ATOM      1  N3  81X A 704      28.470  -0.878   6.007  0.00  0.00    +0.000 N 
ATOM      2  C5  81X A 704      28.758   1.439   5.567  0.00  0.00    +0.000 A 
ATOM      3  C8  81X A 704      27.624   1.412   4.615  0.00  0.00    +0.000 A 
ATOM      4  C10 81X A 704      26.116   2.459   3.032  0.00  0.00    +0.000 A 
ATOM      5  C13 81X A 704      26.942   0.153   4.413  0.00  0.00    +0.000 A 
ATOM      6  C11 81X A 704      25.458   1.240   2.836  0.00  0.00    +0.000 A 
ATOM      7  C12 81X A 704      25.857   0.095   3.513  0.00  0.00    +0.000 A 
ATOM      8  C2  81X A 704      27.418  -1.032   5.166  0.00  0.00    +0.000 A 
ATOM      9  C9  81X A 704      27.181   2.554   3.903  0.00  0.00    +0.000 A 
ATOM     10  N4  81X A 704      29.115   0.347   6.188  0.00  0.00    +0.000 NA
ATOM     11  O1  81X A 704      26.900  -2.127   5.048  0.00  0.00    +0.000 OA
ATOM     12  H3  81X A 704      28.797  -1.674   6.519  0.00  0.00    +0.000 HD
ENDROOT
BRANCH   2  13
ATOM     13  C6  81X A 704      29.540   2.688   5.858  0.00  0.00    +0.000 C 
BRANCH  13  14
ATOM     14  N7  81X A 704      30.909   2.441   5.457  0.00  0.00    +0.000 N 
ATOM     15  H73 81X A 704      31.046   2.773   4.522  0.00  0.00    +0.000 HD
ATOM     16  H72 81X A 704      31.095   1.459   5.495  0.00  0.00    +0.000 HD
ATOM     17  H71 81X A 704      31.529   2.924   6.077  0.00  0.00    +0.000 HD
ENDBRANCH  13  14
ENDBRANCH   2  13
TORSDOF 2
ENDMDL
MODEL 8
REMARK VINA RESULT:      -6.1      2.649      3.681
REMARK  Name = ligand_pdbs\81X.pdb
REMARK  2 active torsions:
REMARK  status: ('A' for Active; 'I' for Inactive)
REMARK    1  A    between atoms: C5_2  and  C6_3
REMARK    2  A    between atoms: C6_3  and  N7_12
REMARK                            x       y       z     vdW  Elec       q    Type
REMARK                         _______ _______ _______ _____ _____    ______ ____
ROOT
ATOM      1  N3  81X A 704      29.900   1.239   4.595  0.00  0.00    +0.000 N 
ATOM      2  C5  81X A 704      28.296   2.984   4.759  0.00  0.00    +0.000 A 
ATOM      3  C8  81X A 704      27.330   2.187   3.969  0.00  0.00    +0.000 A 
ATOM      4  C10 81X A 704      25.179   1.850   2.901  0.00  0.00    +0.000 A 
ATOM      5  C13 81X A 704      27.745   0.878   3.516  0.00  0.00    +0.000 A 
ATOM      6  C11 81X A 704      25.583   0.585   2.463  0.00  0.00    +0.000 A 
ATOM      7  C12 81X A 704      26.848   0.094   2.761  0.00  0.00    +0.000 A 
ATOM      8  C2  81X A 704      29.108   0.414   3.867  0.00  0.00    +0.000 A 
ATOM      9  C9  81X A 704      26.030   2.645   3.641  0.00  0.00    +0.000 A 
ATOM     10  N4  81X A 704      29.480   2.500   5.023  0.00  0.00    +0.000 NA
ATOM     11  O1  81X A 704      29.533  -0.673   3.521  0.00  0.00    +0.000 OA
ATOM     12  H3  81X A 704      30.822   0.932   4.836  0.00  0.00    +0.000 HD
ENDROOT
BRANCH   2  13
ATOM     13  C6  81X A 704      27.976   4.355   5.282  0.00  0.00    +0.000 C 
BRANCH  13  14
ATOM     14  N7  81X A 704      28.358   5.305   4.260  0.00  0.00    +0.000 N 
ATOM     15  H73 81X A 704      29.217   5.011   3.837  0.00  0.00    +0.000 HD
ATOM     16  H72 81X A 704      28.480   6.208   4.674  0.00  0.00    +0.000 HD
ATOM     17  H71 81X A 704      27.641   5.351   3.563  0.00  0.00    +0.000 HD
ENDBRANCH  13  14
ENDBRANCH   2  13
TORSDOF 2
ENDMDL
MODEL 9
REMARK VINA RESULT:      -6.1      3.503      4.830
REMARK  Name = ligand_pdbs\81X.pdb
REMARK  2 active torsions:
REMARK  status: ('A' for Active; 'I' for Inactive)
REMARK    1  A    between atoms: C5_2  and  C6_3
REMARK    2  A    between atoms: C6_3  and  N7_12
REMARK                            x       y       z     vdW  Elec       q    Type
REMARK                         _______ _______ _______ _____ _____    ______ ____
ROOT
ATOM      1  N3  81X A 704      29.733   2.372   6.426  0.00  0.00    +0.000 N 
ATOM      2  C5  81X A 704      28.271   2.845   4.614  0.00  0.00    +0.000 A 
ATOM      3  C8  81X A 704      28.312   1.426   4.195  0.00  0.00    +0.000 A 
ATOM      4  C10 81X A 704      27.684  -0.408   2.738  0.00  0.00    +0.000 A 
ATOM      5  C13 81X A 704      29.115   0.513   4.976  0.00  0.00    +0.000 A 
ATOM      6  C11 81X A 704      28.463  -1.290   3.495  0.00  0.00    +0.000 A 
ATOM      7  C12 81X A 704      29.174  -0.846   4.603  0.00  0.00    +0.000 A 
ATOM      8  C2  81X A 704      29.849   1.051   6.147  0.00  0.00    +0.000 A 
ATOM      9  C9  81X A 704      27.603   0.928   3.073  0.00  0.00    +0.000 A 
ATOM     10  N4  81X A 704      28.951   3.237   5.658  0.00  0.00    +0.000 NA
ATOM     11  O1  81X A 704      30.549   0.349   6.853  0.00  0.00    +0.000 OA
ATOM     12  H3  81X A 704      30.225   2.742   7.215  0.00  0.00    +0.000 HD
ENDROOT
BRANCH   2  13
ATOM     13  C6  81X A 704      27.471   3.883   3.880  0.00  0.00    +0.000 C 
BRANCH  13  14
ATOM     14  N7  81X A 704      28.289   5.073   3.791  0.00  0.00    +0.000 N 
ATOM     15  H73 81X A 704      28.917   5.104   4.570  0.00  0.00    +0.000 HD
ATOM     16  H72 81X A 704      27.702   5.883   3.802  0.00  0.00    +0.000 HD
ATOM     17  H71 81X A 704      28.815   5.053   2.940  0.00  0.00    +0.000 HD
ENDBRANCH  13  14
ENDBRANCH   2  13
TORSDOF 2
ENDMDL
