MODEL 1
REMARK VINA RESULT:      -1.0      0.000      0.000
REMARK  Name = ligand_pdbs\85E.pdb
REMARK  6 active torsions:
REMARK  status: ('A' for Active; 'I' for Inactive)
REMARK    1  A    between atoms: N1_1  and  C1C_18
REMARK    2  A    between atoms: C18_14  and  C19_15
REMARK    3  A    between atoms: C1A_16  and  C1B_17
REMARK    4  A    between atoms: C1E_20  and  C1F_21
REMARK    5  A    between atoms: C1K_25  and  C1M_27
REMARK    6  A    between atoms: C1M_27  and  N13_30
REMARK                            x       y       z     vdW  Elec       q    Type
REMARK                         _______ _______ _______ _____ _____    ______ ____
ROOT
ATOM      1  N1  85E A 702      30.600   1.797   5.974  0.00  0.00    +0.000 N 
ATOM      2  N12 85E A 702      31.225   2.857   6.525  0.00  0.00    +0.000 NA
ATOM      3  C1B 85E A 702      29.355   2.067   5.521  0.00  0.00    +0.000 A 
ATOM      4  C1C 85E A 702      31.282   0.515   5.879  0.00  0.00    +0.000 C 
ATOM      5  C1D 85E A 702      30.342   3.819   6.425  0.00  0.00    +0.000 A 
ATOM      6  C1E 85E A 702      29.142   3.391   5.827  0.00  0.00    +0.000 A 
ENDROOT
BRANCH   6   8
ATOM      7  O   85E A 702      24.378   7.723   4.634  0.00  0.00    +0.000 OA
ATOM      8  C1F 85E A 702      27.962   4.219   5.492  0.00  0.00    +0.000 A 
ATOM      9  C1G 85E A 702      28.006   5.627   5.486  0.00  0.00    +0.000 A 
ATOM     10  C1H 85E A 702      26.877   6.374   5.212  0.00  0.00    +0.000 A 
ATOM     11  C1I 85E A 702      26.732   3.596   5.259  0.00  0.00    +0.000 A 
ATOM     12  C1K 85E A 702      24.253   3.700   4.736  0.00  0.00    +0.000 A 
ATOM     13  C1L 85E A 702      25.559   4.325   4.984  0.00  0.00    +0.000 A 
ATOM     14  C1N 85E A 702      25.654   5.735   4.956  0.00  0.00    +0.000 A 
ATOM     15  C1O 85E A 702      24.458   6.496   4.679  0.00  0.00    +0.000 A 
ATOM     16  N14 85E A 702      23.203   4.416   4.490  0.00  0.00    +0.000 NA
ATOM     17  N15 85E A 702      23.299   5.802   4.440  0.00  0.00    +0.000 N 
ATOM     18 H129 85E A 702      22.491   6.351   4.220  0.00  0.00    +0.000 HD
BRANCH  12  19
ATOM     19  C1M 85E A 702      24.110   2.168   4.753  0.00  0.00    +0.000 C 
BRANCH  19  20
ATOM     20  N13 85E A 702      24.459   1.585   3.449  0.00  0.00    +0.000 N 
ATOM     21 H212 85E A 702      25.453   1.483   3.384  0.00  0.00    +0.000 HD
ATOM     22  H31 85E A 702      24.137   2.187   2.717  0.00  0.00    +0.000 HD
ATOM     23 H113 85E A 702      24.026   0.688   3.358  0.00  0.00    +0.000 HD
ENDBRANCH  19  20
ENDBRANCH  12  19
ENDBRANCH   6   8
BRANCH   3  34
ATOM     24  C13 85E A 702      26.657  -2.082   2.724  0.00  0.00    +0.000 A 
ATOM     25  C15 85E A 702      26.658  -3.442   4.714  0.00  0.00    +0.000 A 
ATOM     26  C17 85E A 702      27.638  -1.220   4.784  0.00  0.00    +0.000 A 
ATOM     27  C   85E A 702      28.289   1.142   3.508  0.00  0.00    +0.000 A 
ATOM     28  C1  85E A 702      27.655   0.169   2.787  0.00  0.00    +0.000 A 
ATOM     29  F   85E A 702      28.619   2.316   2.857  0.00  0.00    +0.000 F 
ATOM     30  C12 85E A 702      27.307  -1.038   3.423  0.00  0.00    +0.000 A 
ATOM     31  C14 85E A 702      26.324  -3.258   3.359  0.00  0.00    +0.000 A 
ATOM     32  C16 85E A 702      27.294  -2.447   5.410  0.00  0.00    +0.000 A 
ATOM     33  C18 85E A 702      28.312  -0.188   5.489  0.00  0.00    +0.000 A 
ATOM     34  C1A 85E A 702      28.629   0.997   4.879  0.00  0.00    +0.000 A 
BRANCH  33  36
ATOM     35  N   85E A 702      28.922  -0.543   7.957  0.00  0.00    +0.000 NA
ATOM     36  C19 85E A 702      28.635  -0.380   6.871  0.00  0.00    +0.000 C 
ENDBRANCH  33  36
ENDBRANCH   3  34
TORSDOF 5
ENDMDL
MODEL 2
REMARK VINA RESULT:      -0.6      1.931      3.230
REMARK  Name = ligand_pdbs\85E.pdb
REMARK  6 active torsions:
REMARK  status: ('A' for Active; 'I' for Inactive)
REMARK    1  A    between atoms: N1_1  and  C1C_18
REMARK    2  A    between atoms: C18_14  and  C19_15
REMARK    3  A    between atoms: C1A_16  and  C1B_17
REMARK    4  A    between atoms: C1E_20  and  C1F_21
REMARK    5  A    between atoms: C1K_25  and  C1M_27
REMARK    6  A    between atoms: C1M_27  and  N13_30
REMARK                            x       y       z     vdW  Elec       q    Type
REMARK                         _______ _______ _______ _____ _____    ______ ____
ROOT
ATOM      1  N1  85E A 702      30.289   2.369   6.907  0.00  0.00    +0.000 N 
ATOM      2  N12 85E A 702      30.442   3.550   7.539  0.00  0.00    +0.000 NA
ATOM      3  C1B 85E A 702      29.084   2.215   6.313  0.00  0.00    +0.000 A 
ATOM      4  C1C 85E A 702      31.382   1.408   6.881  0.00  0.00    +0.000 C 
ATOM      5  C1D 85E A 702      29.295   4.152   7.346  0.00  0.00    +0.000 A 
ATOM      6  C1E 85E A 702      28.392   3.366   6.605  0.00  0.00    +0.000 A 
ENDROOT
BRANCH   6   8
ATOM      7  O   85E A 702      22.250   4.230   4.499  0.00  0.00    +0.000 OA
ATOM      8  C1F 85E A 702      27.040   3.751   6.142  0.00  0.00    +0.000 A 
ATOM      9  C1G 85E A 702      25.988   2.822   6.026  0.00  0.00    +0.000 A 
ATOM     10  C1H 85E A 702      24.749   3.203   5.548  0.00  0.00    +0.000 A 
ATOM     11  C1I 85E A 702      26.811   5.063   5.716  0.00  0.00    +0.000 A 
ATOM     12  C1K 85E A 702      25.291   6.855   4.762  0.00  0.00    +0.000 A 
ATOM     13  C1L 85E A 702      25.563   5.486   5.216  0.00  0.00    +0.000 A 
ATOM     14  C1N 85E A 702      24.526   4.528   5.147  0.00  0.00    +0.000 A 
ATOM     15  C1O 85E A 702      23.242   4.947   4.634  0.00  0.00    +0.000 A 
ATOM     16  N14 85E A 702      24.127   7.193   4.308  0.00  0.00    +0.000 NA
ATOM     17  N15 85E A 702      23.099   6.259   4.260  0.00  0.00    +0.000 N 
ATOM     18 H129 85E A 702      22.191   6.531   3.937  0.00  0.00    +0.000 HD
BRANCH  12  19
ATOM     19  C1M 85E A 702      26.393   7.928   4.827  0.00  0.00    +0.000 C 
BRANCH  19  20
ATOM     20  N13 85E A 702      25.981   9.159   4.137  0.00  0.00    +0.000 N 
ATOM     21 H212 85E A 702      26.016   9.928   4.777  0.00  0.00    +0.000 HD
ATOM     22  H31 85E A 702      25.048   9.053   3.793  0.00  0.00    +0.000 HD
ATOM     23 H113 85E A 702      26.601   9.335   3.371  0.00  0.00    +0.000 HD
ENDBRANCH  19  20
ENDBRANCH  12  19
ENDBRANCH   6   8
BRANCH   3  34
ATOM     24  C13 85E A 702      28.050  -2.719   3.685  0.00  0.00    +0.000 A 
ATOM     25  C15 85E A 702      27.474  -1.537   1.665  0.00  0.00    +0.000 A 
ATOM     26  C17 85E A 702      28.167  -0.283   3.627  0.00  0.00    +0.000 A 
ATOM     27  C   85E A 702      28.997  -0.242   6.262  0.00  0.00    +0.000 A 
ATOM     28  C1  85E A 702      28.746  -1.453   5.681  0.00  0.00    +0.000 A 
ATOM     29  F   85E A 702      29.403  -0.232   7.583  0.00  0.00    +0.000 F 
ATOM     30  C12 85E A 702      28.331  -1.494   4.336  0.00  0.00    +0.000 A 
ATOM     31  C14 85E A 702      27.643  -2.744   2.370  0.00  0.00    +0.000 A 
ATOM     32  C16 85E A 702      27.734  -0.338   2.276  0.00  0.00    +0.000 A 
ATOM     33  C18 85E A 702      28.423   0.952   4.278  0.00  0.00    +0.000 A 
ATOM     34  C1A 85E A 702      28.851   0.994   5.578  0.00  0.00    +0.000 A 
BRANCH  33  36
ATOM     35  N   85E A 702      28.106   3.149   2.987  0.00  0.00    +0.000 NA
ATOM     36  C19 85E A 702      28.262   2.174   3.547  0.00  0.00    +0.000 C 
ENDBRANCH  33  36
ENDBRANCH   3  34
TORSDOF 5
ENDMDL
MODEL 3
REMARK VINA RESULT:      -0.2      1.429      2.110
REMARK  Name = ligand_pdbs\85E.pdb
REMARK  6 active torsions:
REMARK  status: ('A' for Active; 'I' for Inactive)
REMARK    1  A    between atoms: N1_1  and  C1C_18
REMARK    2  A    between atoms: C18_14  and  C19_15
REMARK    3  A    between atoms: C1A_16  and  C1B_17
REMARK    4  A    between atoms: C1E_20  and  C1F_21
REMARK    5  A    between atoms: C1K_25  and  C1M_27
REMARK    6  A    between atoms: C1M_27  and  N13_30
REMARK                            x       y       z     vdW  Elec       q    Type
REMARK                         _______ _______ _______ _____ _____    ______ ____
ROOT
ATOM      1  N1  85E A 702      30.984   1.376   6.046  0.00  0.00    +0.000 N 
ATOM      2  N12 85E A 702      31.656   2.526   6.252  0.00  0.00    +0.000 NA
ATOM      3  C1B 85E A 702      29.683   1.549   5.720  0.00  0.00    +0.000 A 
ATOM      4  C1C 85E A 702      31.673   0.098   6.152  0.00  0.00    +0.000 C 
ATOM      5  C1D 85E A 702      30.748   3.450   6.060  0.00  0.00    +0.000 A 
ATOM      6  C1E 85E A 702      29.487   2.910   5.744  0.00  0.00    +0.000 A 
ENDROOT
BRANCH   6   8
ATOM      7  O   85E A 702      24.443   6.897   4.497  0.00  0.00    +0.000 OA
ATOM      8  C1F 85E A 702      28.255   3.653   5.396  0.00  0.00    +0.000 A 
ATOM      9  C1G 85E A 702      28.200   5.060   5.389  0.00  0.00    +0.000 A 
ATOM     10  C1H 85E A 702      27.024   5.727   5.103  0.00  0.00    +0.000 A 
ATOM     11  C1I 85E A 702      27.075   2.945   5.149  0.00  0.00    +0.000 A 
ATOM     12  C1K 85E A 702      24.601   2.876   4.598  0.00  0.00    +0.000 A 
ATOM     13  C1L 85E A 702      25.856   3.590   4.861  0.00  0.00    +0.000 A 
ATOM     14  C1N 85E A 702      25.853   5.004   4.834  0.00  0.00    +0.000 A 
ATOM     15  C1O 85E A 702      24.609   5.679   4.542  0.00  0.00    +0.000 A 
ATOM     16  N14 85E A 702      23.506   3.516   4.340  0.00  0.00    +0.000 NA
ATOM     17  N15 85E A 702      23.504   4.905   4.290  0.00  0.00    +0.000 N 
ATOM     18 H129 85E A 702      22.663   5.396   4.061  0.00  0.00    +0.000 HD
BRANCH  12  19
ATOM     19  C1M 85E A 702      24.566   1.337   4.614  0.00  0.00    +0.000 C 
BRANCH  19  20
ATOM     20  N13 85E A 702      24.889   0.782   3.291  0.00  0.00    +0.000 N 
ATOM     21 H212 85E A 702      25.717   1.221   2.938  0.00  0.00    +0.000 HD
ATOM     22  H31 85E A 702      24.128   0.950   2.663  0.00  0.00    +0.000 HD
ATOM     23 H113 85E A 702      25.044  -0.203   3.372  0.00  0.00    +0.000 HD
ENDBRANCH  19  20
ENDBRANCH  12  19
ENDBRANCH   6   8
BRANCH   3  34
ATOM     24  C13 85E A 702      26.385  -2.996   4.839  0.00  0.00    +0.000 A 
ATOM     25  C15 85E A 702      26.961  -2.976   2.498  0.00  0.00    +0.000 A 
ATOM     26  C17 85E A 702      27.925  -1.311   3.980  0.00  0.00    +0.000 A 
ATOM     27  C   85E A 702      28.172  -0.224   6.508  0.00  0.00    +0.000 A 
ATOM     28  C1  85E A 702      27.354  -1.306   6.345  0.00  0.00    +0.000 A 
ATOM     29  F   85E A 702      28.282   0.319   7.775  0.00  0.00    +0.000 F 
ATOM     30  C12 85E A 702      27.223  -1.879   5.066  0.00  0.00    +0.000 A 
ATOM     31  C14 85E A 702      26.265  -3.546   3.582  0.00  0.00    +0.000 A 
ATOM     32  C16 85E A 702      27.773  -1.890   2.693  0.00  0.00    +0.000 A 
ATOM     33  C18 85E A 702      28.750  -0.175   4.193  0.00  0.00    +0.000 A 
ATOM     34  C1A 85E A 702      28.899   0.369   5.442  0.00  0.00    +0.000 A 
BRANCH  33  36
ATOM     35  N   85E A 702      30.049   0.804   2.207  0.00  0.00    +0.000 NA
ATOM     36  C19 85E A 702      29.465   0.388   3.087  0.00  0.00    +0.000 C 
ENDBRANCH  33  36
ENDBRANCH   3  34
TORSDOF 5
ENDMDL
MODEL 4
REMARK VINA RESULT:       0.6      1.884      4.412
REMARK  Name = ligand_pdbs\85E.pdb
REMARK  6 active torsions:
REMARK  status: ('A' for Active; 'I' for Inactive)
REMARK    1  A    between atoms: N1_1  and  C1C_18
REMARK    2  A    between atoms: C18_14  and  C19_15
REMARK    3  A    between atoms: C1A_16  and  C1B_17
REMARK    4  A    between atoms: C1E_20  and  C1F_21
REMARK    5  A    between atoms: C1K_25  and  C1M_27
REMARK    6  A    between atoms: C1M_27  and  N13_30
REMARK                            x       y       z     vdW  Elec       q    Type
REMARK                         _______ _______ _______ _____ _____    ______ ____
ROOT
ATOM      1  N1  85E A 702      25.872  -0.118   3.213  0.00  0.00    +0.000 N 
ATOM      2  N12 85E A 702      24.604  -0.184   2.761  0.00  0.00    +0.000 NA
ATOM      3  C1B 85E A 702      26.211   1.086   3.727  0.00  0.00    +0.000 A 
ATOM      4  C1C 85E A 702      26.731  -1.291   3.150  0.00  0.00    +0.000 C 
ATOM      5  C1D 85E A 702      24.134   1.017   2.988  0.00  0.00    +0.000 A 
ATOM      6  C1E 85E A 702      25.092   1.869   3.571  0.00  0.00    +0.000 A 
ENDROOT
BRANCH   6   8
ATOM      7  O   85E A 702      23.414   7.971   5.259  0.00  0.00    +0.000 OA
ATOM      8  C1F 85E A 702      24.892   3.263   4.027  0.00  0.00    +0.000 A 
ATOM      9  C1G 85E A 702      23.624   3.877   4.042  0.00  0.00    +0.000 A 
ATOM     10  C1H 85E A 702      23.475   5.195   4.430  0.00  0.00    +0.000 A 
ATOM     11  C1I 85E A 702      26.004   4.037   4.372  0.00  0.00    +0.000 A 
ATOM     12  C1K 85E A 702      27.039   6.223   5.133  0.00  0.00    +0.000 A 
ATOM     13  C1L 85E A 702      25.891   5.385   4.765  0.00  0.00    +0.000 A 
ATOM     14  C1N 85E A 702      24.597   5.953   4.797  0.00  0.00    +0.000 A 
ATOM     15  C1O 85E A 702      24.466   7.335   5.196  0.00  0.00    +0.000 A 
ATOM     16  N14 85E A 702      26.882   7.459   5.486  0.00  0.00    +0.000 NA
ATOM     17  N15 85E A 702      25.608   8.013   5.540  0.00  0.00    +0.000 N 
ATOM     18 H129 85E A 702      25.488   8.959   5.842  0.00  0.00    +0.000 HD
BRANCH  12  19
ATOM     19  C1M 85E A 702      28.463   5.640   5.116  0.00  0.00    +0.000 C 
BRANCH  19  20
ATOM     20  N13 85E A 702      28.695   4.763   6.273  0.00  0.00    +0.000 N 
ATOM     21 H212 85E A 702      27.948   4.873   6.930  0.00  0.00    +0.000 HD
ATOM     22  H31 85E A 702      29.561   5.008   6.709  0.00  0.00    +0.000 HD
ATOM     23 H113 85E A 702      28.732   3.811   5.968  0.00  0.00    +0.000 HD
ENDBRANCH  19  20
ENDBRANCH  12  19
ENDBRANCH   6   8
BRANCH   3  34
ATOM     24  C13 85E A 702      31.413   1.972   5.840  0.00  0.00    +0.000 A 
ATOM     25  C15 85E A 702      31.120   0.132   7.369  0.00  0.00    +0.000 A 
ATOM     26  C17 85E A 702      29.339   0.690   5.814  0.00  0.00    +0.000 A 
ATOM     27  C   85E A 702      28.358   2.283   3.781  0.00  0.00    +0.000 A 
ATOM     28  C1  85E A 702      29.608   2.547   4.266  0.00  0.00    +0.000 A 
ATOM     29  F   85E A 702      27.873   3.092   2.771  0.00  0.00    +0.000 F 
ATOM     30  C12 85E A 702      30.128   1.740   5.296  0.00  0.00    +0.000 A 
ATOM     31  C14 85E A 702      31.909   1.176   6.848  0.00  0.00    +0.000 A 
ATOM     32  C16 85E A 702      29.870  -0.108   6.862  0.00  0.00    +0.000 A 
ATOM     33  C18 85E A 702      28.038   0.464   5.292  0.00  0.00    +0.000 A 
ATOM     34  C1A 85E A 702      27.540   1.231   4.272  0.00  0.00    +0.000 A 
BRANCH  33  36
ATOM     35  N   85E A 702      26.639  -1.482   6.212  0.00  0.00    +0.000 NA
ATOM     36  C19 85E A 702      27.250  -0.610   5.819  0.00  0.00    +0.000 C 
ENDBRANCH  33  36
ENDBRANCH   3  34
TORSDOF 5
ENDMDL
MODEL 5
REMARK VINA RESULT:       1.0      1.740      2.616
REMARK  Name = ligand_pdbs\85E.pdb
REMARK  6 active torsions:
REMARK  status: ('A' for Active; 'I' for Inactive)
REMARK    1  A    between atoms: N1_1  and  C1C_18
REMARK    2  A    between atoms: C18_14  and  C19_15
REMARK    3  A    between atoms: C1A_16  and  C1B_17
REMARK    4  A    between atoms: C1E_20  and  C1F_21
REMARK    5  A    between atoms: C1K_25  and  C1M_27
REMARK    6  A    between atoms: C1M_27  and  N13_30
REMARK                            x       y       z     vdW  Elec       q    Type
REMARK                         _______ _______ _______ _____ _____    ______ ____
ROOT
ATOM      1  N1  85E A 702      30.259   2.569   6.657  0.00  0.00    +0.000 N 
ATOM      2  N12 85E A 702      30.346   3.609   7.511  0.00  0.00    +0.000 NA
ATOM      3  C1B 85E A 702      29.078   2.493   6.002  0.00  0.00    +0.000 A 
ATOM      4  C1C 85E A 702      31.390   1.670   6.484  0.00  0.00    +0.000 C 
ATOM      5  C1D 85E A 702      29.181   4.197   7.397  0.00  0.00    +0.000 A 
ATOM      6  C1E 85E A 702      28.332   3.540   6.486  0.00  0.00    +0.000 A 
ENDROOT
BRANCH   6   8
ATOM      7  O   85E A 702      22.162   4.570   4.546  0.00  0.00    +0.000 OA
ATOM      8  C1F 85E A 702      26.979   3.962   6.058  0.00  0.00    +0.000 A 
ATOM      9  C1G 85E A 702      25.899   3.062   5.975  0.00  0.00    +0.000 A 
ATOM     10  C1H 85E A 702      24.659   3.476   5.530  0.00  0.00    +0.000 A 
ATOM     11  C1I 85E A 702      26.775   5.279   5.635  0.00  0.00    +0.000 A 
ATOM     12  C1K 85E A 702      25.281   7.110   4.716  0.00  0.00    +0.000 A 
ATOM     13  C1L 85E A 702      25.527   5.735   5.168  0.00  0.00    +0.000 A 
ATOM     14  C1N 85E A 702      24.462   4.807   5.130  0.00  0.00    +0.000 A 
ATOM     15  C1O 85E A 702      23.176   5.259   4.651  0.00  0.00    +0.000 A 
ATOM     16  N14 85E A 702      24.114   7.479   4.293  0.00  0.00    +0.000 NA
ATOM     17  N15 85E A 702      23.059   6.574   4.276  0.00  0.00    +0.000 N 
ATOM     18 H129 85E A 702      22.152   6.871   3.977  0.00  0.00    +0.000 HD
BRANCH  12  19
ATOM     19  C1M 85E A 702      26.414   8.151   4.747  0.00  0.00    +0.000 C 
BRANCH  19  20
ATOM     20  N13 85E A 702      26.031   9.379   4.033  0.00  0.00    +0.000 N 
ATOM     21 H212 85E A 702      25.107   9.274   3.662  0.00  0.00    +0.000 HD
ATOM     22  H31 85E A 702      26.674   9.544   3.285  0.00  0.00    +0.000 HD
ATOM     23 H113 85E A 702      26.050  10.153   4.667  0.00  0.00    +0.000 HD
ENDBRANCH  19  20
ENDBRANCH  12  19
ENDBRANCH   6   8
BRANCH   3  34
ATOM     24  C13 85E A 702      28.587  -1.502   1.987  0.00  0.00    +0.000 A 
ATOM     25  C15 85E A 702      28.914  -3.224   3.642  0.00  0.00    +0.000 A 
ATOM     26  C17 85E A 702      28.910  -0.893   4.326  0.00  0.00    +0.000 A 
ATOM     27  C   85E A 702      28.699   1.784   3.678  0.00  0.00    +0.000 A 
ATOM     28  C1  85E A 702      28.590   0.863   2.674  0.00  0.00    +0.000 A 
ATOM     29  F   85E A 702      28.601   3.121   3.341  0.00  0.00    +0.000 F 
ATOM     30  C12 85E A 702      28.686  -0.506   2.987  0.00  0.00    +0.000 A 
ATOM     31  C14 85E A 702      28.685  -2.838   2.307  0.00  0.00    +0.000 A 
ATOM     32  C16 85E A 702      29.019  -2.277   4.627  0.00  0.00    +0.000 A 
ATOM     33  C18 85E A 702      29.035   0.100   5.334  0.00  0.00    +0.000 A 
ATOM     34  C1A 85E A 702      28.916   1.431   5.036  0.00  0.00    +0.000 A 
BRANCH  33  36
ATOM     35  N   85E A 702      29.443  -0.594   7.772  0.00  0.00    +0.000 NA
ATOM     36  C19 85E A 702      29.253  -0.304   6.691  0.00  0.00    +0.000 C 
ENDBRANCH  33  36
ENDBRANCH   3  34
TORSDOF 5
ENDMDL
MODEL 6
REMARK VINA RESULT:       1.6      2.171      4.845
REMARK  Name = ligand_pdbs\85E.pdb
REMARK  6 active torsions:
REMARK  status: ('A' for Active; 'I' for Inactive)
REMARK    1  A    between atoms: N1_1  and  C1C_18
REMARK    2  A    between atoms: C18_14  and  C19_15
REMARK    3  A    between atoms: C1A_16  and  C1B_17
REMARK    4  A    between atoms: C1E_20  and  C1F_21
REMARK    5  A    between atoms: C1K_25  and  C1M_27
REMARK    6  A    between atoms: C1M_27  and  N13_30
REMARK                            x       y       z     vdW  Elec       q    Type
REMARK                         _______ _______ _______ _____ _____    ______ ____
ROOT
ATOM      1  N1  85E A 702      25.650  -0.430   3.497  0.00  0.00    +0.000 N 
ATOM      2  N12 85E A 702      24.493  -0.346   2.812  0.00  0.00    +0.000 NA
ATOM      3  C1B 85E A 702      26.028   0.728   4.085  0.00  0.00    +0.000 A 
ATOM      4  C1C 85E A 702      26.358  -1.699   3.581  0.00  0.00    +0.000 C 
ATOM      5  C1D 85E A 702      24.137   0.905   2.964  0.00  0.00    +0.000 A 
ATOM      6  C1E 85E A 702      25.061   1.639   3.731  0.00  0.00    +0.000 A 
ENDROOT
BRANCH   6   8
ATOM      7  O   85E A 702      23.815   7.898   5.206  0.00  0.00    +0.000 OA
ATOM      8  C1F 85E A 702      24.948   3.051   4.162  0.00  0.00    +0.000 A 
ATOM      9  C1G 85E A 702      23.760   3.793   4.009  0.00  0.00    +0.000 A 
ATOM     10  C1H 85E A 702      23.698   5.122   4.380  0.00  0.00    +0.000 A 
ATOM     11  C1I 85E A 702      26.078   3.709   4.656  0.00  0.00    +0.000 A 
ATOM     12  C1K 85E A 702      27.223   5.783   5.560  0.00  0.00    +0.000 A 
ATOM     13  C1L 85E A 702      26.054   5.065   5.037  0.00  0.00    +0.000 A 
ATOM     14  C1N 85E A 702      24.833   5.764   4.897  0.00  0.00    +0.000 A 
ATOM     15  C1O 85E A 702      24.794   7.156   5.281  0.00  0.00    +0.000 A 
ATOM     16  N14 85E A 702      27.149   7.032   5.894  0.00  0.00    +0.000 NA
ATOM     17  N15 85E A 702      25.944   7.715   5.778  0.00  0.00    +0.000 N 
ATOM     18 H129 85E A 702      25.883   8.672   6.066  0.00  0.00    +0.000 HD
BRANCH  12  19
ATOM     19  C1M 85E A 702      28.568   5.056   5.731  0.00  0.00    +0.000 C 
BRANCH  19  20
ATOM     20  N13 85E A 702      28.586   4.249   6.960  0.00  0.00    +0.000 N 
ATOM     21 H212 85E A 702      27.954   4.645   7.629  0.00  0.00    +0.000 HD
ATOM     22  H31 85E A 702      29.511   4.239   7.340  0.00  0.00    +0.000 HD
ATOM     23 H113 85E A 702      28.302   3.313   6.749  0.00  0.00    +0.000 HD
ENDBRANCH  19  20
ENDBRANCH  12  19
ENDBRANCH   6   8
BRANCH   3  34
ATOM     24  C13 85E A 702      30.760   0.363   7.213  0.00  0.00    +0.000 A 
ATOM     25  C15 85E A 702      31.753   2.155   5.943  0.00  0.00    +0.000 A 
ATOM     26  C17 85E A 702      29.495   1.427   5.420  0.00  0.00    +0.000 A 
ATOM     27  C   85E A 702      27.352  -0.245   5.914  0.00  0.00    +0.000 A 
ATOM     28  C1  85E A 702      28.474  -0.384   6.683  0.00  0.00    +0.000 A 
ATOM     29  F   85E A 702      26.290  -1.093   6.162  0.00  0.00    +0.000 F 
ATOM     30  C12 85E A 702      29.572   0.466   6.452  0.00  0.00    +0.000 A 
ATOM     31  C14 85E A 702      31.827   1.200   6.976  0.00  0.00    +0.000 A 
ATOM     32  C16 85E A 702      30.615   2.269   5.189  0.00  0.00    +0.000 A 
ATOM     33  C18 85E A 702      28.317   1.523   4.635  0.00  0.00    +0.000 A 
ATOM     34  C1A 85E A 702      27.237   0.715   4.874  0.00  0.00    +0.000 A 
BRANCH  33  36
ATOM     35  N   85E A 702      28.168   3.307   2.794  0.00  0.00    +0.000 NA
ATOM     36  C19 85E A 702      28.246   2.508   3.597  0.00  0.00    +0.000 C 
ENDBRANCH  33  36
ENDBRANCH   3  34
TORSDOF 5
ENDMDL
