MODEL 1
REMARK VINA RESULT:      -8.2      0.000      0.000
REMARK  Name = ligand_pdbs\8NH.pdb
REMARK  2 active torsions:
REMARK  status: ('A' for Active; 'I' for Inactive)
REMARK    1  A    between atoms: C4_4  and  N12_10
REMARK    2  A    between atoms: C9_7  and  C10_8
REMARK                            x       y       z     vdW  Elec       q    Type
REMARK                         _______ _______ _______ _____ _____    ______ ____
ROOT
ATOM      1  N12 8NH A   1      27.145   1.637   4.593  0.00  0.00    +0.000 N 
ATOM      2  C13 8NH A   1      27.058   0.822   3.516  0.00  0.00    +0.000 C 
ATOM      3  N14 8NH A   1      27.390  -0.408   3.896  0.00  0.00    +0.000 N 
ATOM      4  C15 8NH A   1      27.902  -0.443   5.237  0.00  0.00    +0.000 C 
ATOM      5  C17 8NH A   1      29.350  -0.699   4.901  0.00  0.00    +0.000 C 
ATOM      6  C19 8NH A   1      29.315  -1.655   3.692  0.00  0.00    +0.000 C 
ATOM      7  C22 8NH A   1      27.942  -1.423   3.056  0.00  0.00    +0.000 C 
ATOM      8  O25 8NH A   1      29.844   0.583   4.520  0.00  0.00    +0.000 OA
ATOM      9  C27 8NH A   1      27.803   1.050   5.596  0.00  0.00    +0.000 C 
ATOM     10  O28 8NH A   1      28.273   1.589   6.599  0.00  0.00    +0.000 OA
ATOM     11  O29 8NH A   1      26.757   1.179   2.376  0.00  0.00    +0.000 OA
ENDROOT
BRANCH   1  15
ATOM     12 CL1  8NH A   1      23.440   5.264   4.641  0.00  0.00    +0.000 Cl
ATOM     13  C2  8NH A   1      25.173   4.721   4.694  0.00  0.00    +0.000 A 
ATOM     14  C3  8NH A   1      25.470   3.338   4.703  0.00  0.00    +0.000 A 
ATOM     15  C4  8NH A   1      26.811   2.931   4.626  0.00  0.00    +0.000 A 
ATOM     16  C5  8NH A   1      27.878   3.840   4.611  0.00  0.00    +0.000 A 
ATOM     17  C7  8NH A   1      27.588   5.192   4.714  0.00  0.00    +0.000 A 
ATOM     18  C9  8NH A   1      26.253   5.646   4.697  0.00  0.00    +0.000 A 
ATOM     19  C30 8NH A   1      24.394   2.320   4.815  0.00  0.00    +0.000 C 
BRANCH  18  20
ATOM     20  C10 8NH A   1      26.095   7.052   4.544  0.00  0.00    +0.000 C 
ATOM     21  N11 8NH A   1      25.928   8.193   4.526  0.00  0.00    +0.000 NA
ENDBRANCH  18  20
ENDBRANCH   1  15
TORSDOF 2
ENDMDL
MODEL 2
REMARK VINA RESULT:      -8.0      2.829      6.280
REMARK  Name = ligand_pdbs\8NH.pdb
REMARK  2 active torsions:
REMARK  status: ('A' for Active; 'I' for Inactive)
REMARK    1  A    between atoms: C4_4  and  N12_10
REMARK    2  A    between atoms: C9_7  and  C10_8
REMARK                            x       y       z     vdW  Elec       q    Type
REMARK                         _______ _______ _______ _____ _____    ______ ____
ROOT
ATOM      1  N12 8NH A   1      26.642   3.654   3.990  0.00  0.00    +0.000 N 
ATOM      2  C13 8NH A   1      25.451   3.922   4.574  0.00  0.00    +0.000 C 
ATOM      3  N14 8NH A   1      25.063   5.135   4.191  0.00  0.00    +0.000 N 
ATOM      4  C15 8NH A   1      26.085   5.827   3.459  0.00  0.00    +0.000 C 
ATOM      5  C17 8NH A   1      26.457   6.832   4.520  0.00  0.00    +0.000 C 
ATOM      6  C19 8NH A   1      25.125   7.203   5.203  0.00  0.00    +0.000 C 
ATOM      7  C22 8NH A   1      24.205   6.010   4.927  0.00  0.00    +0.000 C 
ATOM      8  O25 8NH A   1      27.296   6.096   5.409  0.00  0.00    +0.000 OA
ATOM      9  C27 8NH A   1      27.191   4.757   3.475  0.00  0.00    +0.000 C 
ATOM     10  O28 8NH A   1      28.357   4.913   3.112  0.00  0.00    +0.000 OA
ATOM     11  O29 8NH A   1      24.856   3.175   5.353  0.00  0.00    +0.000 OA
ENDROOT
BRANCH   1  15
ATOM     12 CL1  8NH A   1      30.070   0.678   6.496  0.00  0.00    +0.000 Cl
ATOM     13  C2  8NH A   1      28.867   0.997   5.171  0.00  0.00    +0.000 A 
ATOM     14  C3  8NH A   1      28.151   2.216   5.158  0.00  0.00    +0.000 A 
ATOM     15  C4  8NH A   1      27.313   2.500   4.070  0.00  0.00    +0.000 A 
ATOM     16  C5  8NH A   1      27.100   1.594   3.022  0.00  0.00    +0.000 A 
ATOM     17  C7  8NH A   1      27.717   0.355   3.093  0.00  0.00    +0.000 A 
ATOM     18  C9  8NH A   1      28.641   0.067   4.120  0.00  0.00    +0.000 A 
ATOM     19  C30 8NH A   1      28.255   3.182   6.283  0.00  0.00    +0.000 C 
BRANCH  18  20
ATOM     20  C10 8NH A   1      29.396  -1.125   3.937  0.00  0.00    +0.000 C 
ATOM     21  N11 8NH A   1      29.946  -2.110   3.697  0.00  0.00    +0.000 NA
ENDBRANCH  18  20
ENDBRANCH   1  15
TORSDOF 2
ENDMDL
MODEL 3
REMARK VINA RESULT:      -8.0      2.874      6.305
REMARK  Name = ligand_pdbs\8NH.pdb
REMARK  2 active torsions:
REMARK  status: ('A' for Active; 'I' for Inactive)
REMARK    1  A    between atoms: C4_4  and  N12_10
REMARK    2  A    between atoms: C9_7  and  C10_8
REMARK                            x       y       z     vdW  Elec       q    Type
REMARK                         _______ _______ _______ _____ _____    ______ ____
ROOT
ATOM      1  N12 8NH A   1      27.042   3.726   4.887  0.00  0.00    +0.000 N 
ATOM      2  C13 8NH A   1      27.232   4.824   4.119  0.00  0.00    +0.000 C 
ATOM      3  N14 8NH A   1      26.500   5.814   4.621  0.00  0.00    +0.000 N 
ATOM      4  C15 8NH A   1      25.624   5.368   5.667  0.00  0.00    +0.000 C 
ATOM      5  C17 8NH A   1      24.325   5.468   4.907  0.00  0.00    +0.000 C 
ATOM      6  C19 8NH A   1      24.470   6.730   4.033  0.00  0.00    +0.000 C 
ATOM      7  C22 8NH A   1      25.982   6.927   3.888  0.00  0.00    +0.000 C 
ATOM      8  O25 8NH A   1      24.309   4.291   4.101  0.00  0.00    +0.000 OA
ATOM      9  C27 8NH A   1      25.990   3.873   5.696  0.00  0.00    +0.000 C 
ATOM     10  O28 8NH A   1      25.398   2.993   6.322  0.00  0.00    +0.000 OA
ATOM     11  O29 8NH A   1      27.938   4.874   3.111  0.00  0.00    +0.000 OA
ENDROOT
BRANCH   1  15
ATOM     12 CL1  8NH A   1      30.815   0.505   6.394  0.00  0.00    +0.000 Cl
ATOM     13  C2  8NH A   1      29.367   0.941   5.387  0.00  0.00    +0.000 A 
ATOM     14  C3  8NH A   1      28.712   2.176   5.606  0.00  0.00    +0.000 A 
ATOM     15  C4  8NH A   1      27.669   2.553   4.747  0.00  0.00    +0.000 A 
ATOM     16  C5  8NH A   1      27.199   1.726   3.718  0.00  0.00    +0.000 A 
ATOM     17  C7  8NH A   1      27.770   0.471   3.575  0.00  0.00    +0.000 A 
ATOM     18  C9  8NH A   1      28.882   0.091   4.355  0.00  0.00    +0.000 A 
ATOM     19  C30 8NH A   1      29.094   3.060   6.738  0.00  0.00    +0.000 C 
BRANCH  18  20
ATOM     20  C10 8NH A   1      29.534  -1.103   3.939  0.00  0.00    +0.000 C 
ATOM     21  N11 8NH A   1      29.960  -2.114   3.584  0.00  0.00    +0.000 NA
ENDBRANCH  18  20
ENDBRANCH   1  15
TORSDOF 2
ENDMDL
MODEL 4
REMARK VINA RESULT:      -7.8      1.005      2.139
REMARK  Name = ligand_pdbs\8NH.pdb
REMARK  2 active torsions:
REMARK  status: ('A' for Active; 'I' for Inactive)
REMARK    1  A    between atoms: C4_4  and  N12_10
REMARK    2  A    between atoms: C9_7  and  C10_8
REMARK                            x       y       z     vdW  Elec       q    Type
REMARK                         _______ _______ _______ _____ _____    ______ ____
ROOT
ATOM      1  N12 8NH A   1      27.398   1.987   4.288  0.00  0.00    +0.000 N 
ATOM      2  C13 8NH A   1      27.889   1.228   5.295  0.00  0.00    +0.000 C 
ATOM      3  N14 8NH A   1      28.269   0.059   4.789  0.00  0.00    +0.000 N 
ATOM      4  C15 8NH A   1      27.875  -0.093   3.418  0.00  0.00    +0.000 C 
ATOM      5  C17 8NH A   1      26.782  -1.111   3.627  0.00  0.00    +0.000 C 
ATOM      6  C19 8NH A   1      27.302  -2.031   4.750  0.00  0.00    +0.000 C 
ATOM      7  C22 8NH A   1      28.331  -1.180   5.499  0.00  0.00    +0.000 C 
ATOM      8  O25 8NH A   1      25.674  -0.334   4.079  0.00  0.00    +0.000 OA
ATOM      9  C27 8NH A   1      27.169   1.256   3.195  0.00  0.00    +0.000 C 
ATOM     10  O28 8NH A   1      26.500   1.571   2.210  0.00  0.00    +0.000 OA
ATOM     11  O29 8NH A   1      27.937   1.563   6.480  0.00  0.00    +0.000 OA
ENDROOT
BRANCH   1  15
ATOM     12 CL1  8NH A   1      23.505   5.369   4.830  0.00  0.00    +0.000 Cl
ATOM     13  C2  8NH A   1      25.264   4.937   4.679  0.00  0.00    +0.000 A 
ATOM     14  C3  8NH A   1      25.644   3.576   4.621  0.00  0.00    +0.000 A 
ATOM     15  C4  8NH A   1      26.991   3.257   4.389  0.00  0.00    +0.000 A 
ATOM     16  C5  8NH A   1      27.991   4.231   4.279  0.00  0.00    +0.000 A 
ATOM     17  C7  8NH A   1      27.632   5.560   4.446  0.00  0.00    +0.000 A 
ATOM     18  C9  8NH A   1      26.278   5.929   4.586  0.00  0.00    +0.000 A 
ATOM     19  C30 8NH A   1      24.652   2.489   4.826  0.00  0.00    +0.000 C 
BRANCH  18  20
ATOM     20  C10 8NH A   1      26.018   7.324   4.486  0.00  0.00    +0.000 C 
ATOM     21  N11 8NH A   1      25.826   8.461   4.515  0.00  0.00    +0.000 NA
ENDBRANCH  18  20
ENDBRANCH   1  15
TORSDOF 2
ENDMDL
MODEL 5
REMARK VINA RESULT:      -7.6      2.724      6.082
REMARK  Name = ligand_pdbs\8NH.pdb
REMARK  2 active torsions:
REMARK  status: ('A' for Active; 'I' for Inactive)
REMARK    1  A    between atoms: C4_4  and  N12_10
REMARK    2  A    between atoms: C9_7  and  C10_8
REMARK                            x       y       z     vdW  Elec       q    Type
REMARK                         _______ _______ _______ _____ _____    ______ ____
ROOT
ATOM      1  N12 8NH A   1      27.092   3.642   4.729  0.00  0.00    +0.000 N 
ATOM      2  C13 8NH A   1      27.237   4.817   4.073  0.00  0.00    +0.000 C 
ATOM      3  N14 8NH A   1      26.520   5.740   4.706  0.00  0.00    +0.000 N 
ATOM      4  C15 8NH A   1      25.696   5.175   5.736  0.00  0.00    +0.000 C 
ATOM      5  C17 8NH A   1      24.364   5.336   5.048  0.00  0.00    +0.000 C 
ATOM      6  C19 8NH A   1      24.458   6.684   4.305  0.00  0.00    +0.000 C 
ATOM      7  C22 8NH A   1      25.960   6.915   4.117  0.00  0.00    +0.000 C 
ATOM      8  O25 8NH A   1      24.322   4.250   4.126  0.00  0.00    +0.000 OA
ATOM      9  C27 8NH A   1      26.076   3.691   5.593  0.00  0.00    +0.000 C 
ATOM     10  O28 8NH A   1      25.520   2.742   6.149  0.00  0.00    +0.000 OA
ATOM     11  O29 8NH A   1      27.897   4.981   3.045  0.00  0.00    +0.000 OA
ENDROOT
BRANCH   1  15
ATOM     12 CL1  8NH A   1      27.214  -0.810   2.074  0.00  0.00    +0.000 Cl
ATOM     13  C2  8NH A   1      27.917   0.406   3.226  0.00  0.00    +0.000 A 
ATOM     14  C3  8NH A   1      27.231   1.621   3.463  0.00  0.00    +0.000 A 
ATOM     15  C4  8NH A   1      27.722   2.499   4.440  0.00  0.00    +0.000 A 
ATOM     16  C5  8NH A   1      28.907   2.258   5.148  0.00  0.00    +0.000 A 
ATOM     17  C7  8NH A   1      29.635   1.120   4.836  0.00  0.00    +0.000 A 
ATOM     18  C9  8NH A   1      29.129   0.165   3.930  0.00  0.00    +0.000 A 
ATOM     19  C30 8NH A   1      26.021   1.987   2.680  0.00  0.00    +0.000 C 
BRANCH  18  20
ATOM     20  C10 8NH A   1      29.836  -1.069   3.893  0.00  0.00    +0.000 C 
ATOM     21  N11 8NH A   1      30.334  -2.103   3.788  0.00  0.00    +0.000 NA
ENDBRANCH  18  20
ENDBRANCH   1  15
TORSDOF 2
ENDMDL
MODEL 6
REMARK VINA RESULT:      -7.3      1.501      1.922
REMARK  Name = ligand_pdbs\8NH.pdb
REMARK  2 active torsions:
REMARK  status: ('A' for Active; 'I' for Inactive)
REMARK    1  A    between atoms: C4_4  and  N12_10
REMARK    2  A    between atoms: C9_7  and  C10_8
REMARK                            x       y       z     vdW  Elec       q    Type
REMARK                         _______ _______ _______ _____ _____    ______ ____
ROOT
ATOM      1  N12 8NH A   1      26.689   1.141   5.097  0.00  0.00    +0.000 N 
ATOM      2  C13 8NH A   1      26.183   0.062   4.455  0.00  0.00    +0.000 C 
ATOM      3  N14 8NH A   1      26.823  -1.019   4.890  0.00  0.00    +0.000 N 
ATOM      4  C15 8NH A   1      27.938  -0.690   5.731  0.00  0.00    +0.000 C 
ATOM      5  C17 8NH A   1      29.040  -1.044   4.764  0.00  0.00    +0.000 C 
ATOM      6  C19 8NH A   1      28.532  -2.296   4.021  0.00  0.00    +0.000 C 
ATOM      7  C22 8NH A   1      27.008  -2.234   4.159  0.00  0.00    +0.000 C 
ATOM      8  O25 8NH A   1      29.099   0.078   3.886  0.00  0.00    +0.000 OA
ATOM      9  C27 8NH A   1      27.833   0.846   5.717  0.00  0.00    +0.000 C 
ATOM     10  O28 8NH A   1      28.667   1.635   6.165  0.00  0.00    +0.000 OA
ATOM     11  O29 8NH A   1      25.304   0.094   3.592  0.00  0.00    +0.000 OA
ENDROOT
BRANCH   1  15
ATOM     12 CL1  8NH A   1      26.946   5.741   2.719  0.00  0.00    +0.000 Cl
ATOM     13  C2  8NH A   1      26.242   4.582   3.927  0.00  0.00    +0.000 A 
ATOM     14  C3  8NH A   1      26.714   3.249   3.973  0.00  0.00    +0.000 A 
ATOM     15  C4  8NH A   1      26.246   2.398   4.986  0.00  0.00    +0.000 A 
ATOM     16  C5  8NH A   1      25.276   2.790   5.916  0.00  0.00    +0.000 A 
ATOM     17  C7  8NH A   1      24.734   4.061   5.801  0.00  0.00    +0.000 A 
ATOM     18  C9  8NH A   1      25.243   4.979   4.859  0.00  0.00    +0.000 A 
ATOM     19  C30 8NH A   1      27.672   2.737   2.959  0.00  0.00    +0.000 C 
BRANCH  18  20
ATOM     20  C10 8NH A   1      24.789   6.319   5.014  0.00  0.00    +0.000 C 
ATOM     21  N11 8NH A   1      24.517   7.437   5.090  0.00  0.00    +0.000 NA
ENDBRANCH  18  20
ENDBRANCH   1  15
TORSDOF 2
ENDMDL
MODEL 7
REMARK VINA RESULT:      -7.1      3.227      6.102
REMARK  Name = ligand_pdbs\8NH.pdb
REMARK  2 active torsions:
REMARK  status: ('A' for Active; 'I' for Inactive)
REMARK    1  A    between atoms: C4_4  and  N12_10
REMARK    2  A    between atoms: C9_7  and  C10_8
REMARK                            x       y       z     vdW  Elec       q    Type
REMARK                         _______ _______ _______ _____ _____    ______ ____
ROOT
ATOM      1  N12 8NH A   1      26.921   3.701   4.495  0.00  0.00    +0.000 N 
ATOM      2  C13 8NH A   1      25.653   3.708   4.970  0.00  0.00    +0.000 C 
ATOM      3  N14 8NH A   1      24.943   4.570   4.248  0.00  0.00    +0.000 N 
ATOM      4  C15 8NH A   1      25.763   5.333   3.351  0.00  0.00    +0.000 C 
ATOM      5  C17 8NH A   1      25.689   6.654   4.074  0.00  0.00    +0.000 C 
ATOM      6  C19 8NH A   1      24.247   6.735   4.613  0.00  0.00    +0.000 C 
ATOM      7  C22 8NH A   1      23.783   5.278   4.692  0.00  0.00    +0.000 C 
ATOM      8  O25 8NH A   1      26.623   6.511   5.143  0.00  0.00    +0.000 OA
ATOM      9  C27 8NH A   1      27.142   4.738   3.684  0.00  0.00    +0.000 C 
ATOM     10  O28 8NH A   1      28.230   5.166   3.296  0.00  0.00    +0.000 OA
ATOM     11  O29 8NH A   1      25.249   3.050   5.930  0.00  0.00    +0.000 OA
ENDROOT
BRANCH   1  15
ATOM     12 CL1  8NH A   1      29.427  -0.823   4.121  0.00  0.00    +0.000 Cl
ATOM     13  C2  8NH A   1      29.190   0.844   4.805  0.00  0.00    +0.000 A 
ATOM     14  C3  8NH A   1      28.156   1.665   4.297  0.00  0.00    +0.000 A 
ATOM     15  C4  8NH A   1      27.909   2.903   4.911  0.00  0.00    +0.000 A 
ATOM     16  C5  8NH A   1      28.690   3.394   5.966  0.00  0.00    +0.000 A 
ATOM     17  C7  8NH A   1      29.771   2.635   6.388  0.00  0.00    +0.000 A 
ATOM     18  C9  8NH A   1      29.996   1.346   5.863  0.00  0.00    +0.000 A 
ATOM     19  C30 8NH A   1      27.351   1.251   3.119  0.00  0.00    +0.000 C 
BRANCH  18  20
ATOM     20  C10 8NH A   1      30.969   0.572   6.557  0.00  0.00    +0.000 C 
ATOM     21  N11 8NH A   1      31.827   0.030   7.103  0.00  0.00    +0.000 NA
ENDBRANCH  18  20
ENDBRANCH   1  15
TORSDOF 2
ENDMDL
MODEL 8
REMARK VINA RESULT:      -7.0      2.644      6.221
REMARK  Name = ligand_pdbs\8NH.pdb
REMARK  2 active torsions:
REMARK  status: ('A' for Active; 'I' for Inactive)
REMARK    1  A    between atoms: C4_4  and  N12_10
REMARK    2  A    between atoms: C9_7  and  C10_8
REMARK                            x       y       z     vdW  Elec       q    Type
REMARK                         _______ _______ _______ _____ _____    ______ ____
ROOT
ATOM      1  N12 8NH A   1      27.229   2.592   4.559  0.00  0.00    +0.000 N 
ATOM      2  C13 8NH A   1      27.623   3.451   5.528  0.00  0.00    +0.000 C 
ATOM      3  N14 8NH A   1      26.792   4.489   5.527  0.00  0.00    +0.000 N 
ATOM      4  C15 8NH A   1      25.889   4.461   4.412  0.00  0.00    +0.000 C 
ATOM      5  C17 8NH A   1      26.499   5.592   3.622  0.00  0.00    +0.000 C 
ATOM      6  C19 8NH A   1      26.940   6.625   4.679  0.00  0.00    +0.000 C 
ATOM      7  C22 8NH A   1      27.106   5.813   5.966  0.00  0.00    +0.000 C 
ATOM      8  O25 8NH A   1      27.631   4.996   2.991  0.00  0.00    +0.000 OA
ATOM      9  C27 8NH A   1      26.352   3.162   3.730  0.00  0.00    +0.000 C 
ATOM     10  O28 8NH A   1      26.000   2.759   2.621  0.00  0.00    +0.000 OA
ATOM     11  O29 8NH A   1      28.606   3.301   6.256  0.00  0.00    +0.000 OA
ENDROOT
BRANCH   1  15
ATOM     12 CL1  8NH A   1      26.882  -2.575   4.826  0.00  0.00    +0.000 Cl
ATOM     13  C2  8NH A   1      27.706  -1.032   4.334  0.00  0.00    +0.000 A 
ATOM     14  C3  8NH A   1      27.072   0.207   4.584  0.00  0.00    +0.000 A 
ATOM     15  C4  8NH A   1      27.767   1.394   4.307  0.00  0.00    +0.000 A 
ATOM     16  C5  8NH A   1      29.042   1.406   3.726  0.00  0.00    +0.000 A 
ATOM     17  C7  8NH A   1      29.616   0.192   3.380  0.00  0.00    +0.000 A 
ATOM     18  C9  8NH A   1      28.992  -1.025   3.728  0.00  0.00    +0.000 A 
ATOM     19  C30 8NH A   1      25.683   0.270   5.110  0.00  0.00    +0.000 C 
BRANCH  18  20
ATOM     20  C10 8NH A   1      29.796  -2.187   3.555  0.00  0.00    +0.000 C 
ATOM     21  N11 8NH A   1      30.416  -3.158   3.519  0.00  0.00    +0.000 NA
ENDBRANCH  18  20
ENDBRANCH   1  15
TORSDOF 2
ENDMDL
MODEL 9
REMARK VINA RESULT:      -6.9      1.786      2.345
REMARK  Name = ligand_pdbs\8NH.pdb
REMARK  2 active torsions:
REMARK  status: ('A' for Active; 'I' for Inactive)
REMARK    1  A    between atoms: C4_4  and  N12_10
REMARK    2  A    between atoms: C9_7  and  C10_8
REMARK                            x       y       z     vdW  Elec       q    Type
REMARK                         _______ _______ _______ _____ _____    ______ ____
ROOT
ATOM      1  N12 8NH A   1      27.656   1.315   4.690  0.00  0.00    +0.000 N 
ATOM      2  C13 8NH A   1      26.839   0.301   5.060  0.00  0.00    +0.000 C 
ATOM      3  N14 8NH A   1      27.585  -0.778   5.276  0.00  0.00    +0.000 N 
ATOM      4  C15 8NH A   1      28.950  -0.584   4.877  0.00  0.00    +0.000 C 
ATOM      5  C17 8NH A   1      28.935  -1.459   3.649  0.00  0.00    +0.000 C 
ATOM      6  C19 8NH A   1      28.039  -2.657   4.023  0.00  0.00    +0.000 C 
ATOM      7  C22 8NH A   1      27.150  -2.134   5.155  0.00  0.00    +0.000 C 
ATOM      8  O25 8NH A   1      28.308  -0.647   2.658  0.00  0.00    +0.000 OA
ATOM      9  C27 8NH A   1      28.872   0.867   4.370  0.00  0.00    +0.000 C 
ATOM     10  O28 8NH A   1      29.756   1.472   3.761  0.00  0.00    +0.000 OA
ATOM     11  O29 8NH A   1      25.612   0.371   5.143  0.00  0.00    +0.000 OA
ENDROOT
BRANCH   1  15
ATOM     12 CL1  8NH A   1      27.649   6.273   6.208  0.00  0.00    +0.000 Cl
ATOM     13  C2  8NH A   1      27.244   4.936   5.045  0.00  0.00    +0.000 A 
ATOM     14  C3  8NH A   1      27.700   3.623   5.307  0.00  0.00    +0.000 A 
ATOM     15  C4  8NH A   1      27.285   2.579   4.466  0.00  0.00    +0.000 A 
ATOM     16  C5  8NH A   1      26.490   2.792   3.332  0.00  0.00    +0.000 A 
ATOM     17  C7  8NH A   1      26.135   4.095   3.016  0.00  0.00    +0.000 A 
ATOM     18  C9  8NH A   1      26.452   5.160   3.886  0.00  0.00    +0.000 A 
ATOM     19  C30 8NH A   1      28.624   3.339   6.436  0.00  0.00    +0.000 C 
BRANCH  18  20
ATOM     20  C10 8NH A   1      25.813   6.396   3.586  0.00  0.00    +0.000 C 
ATOM     21  N11 8NH A   1      25.224   7.373   3.425  0.00  0.00    +0.000 NA
ENDBRANCH  18  20
ENDBRANCH   1  15
TORSDOF 2
ENDMDL
