MODEL 1
REMARK VINA RESULT:      -1.7      0.000      0.000
REMARK  Name = ligand_pdbs\97L.pdb
REMARK  6 active torsions:
REMARK  status: ('A' for Active; 'I' for Inactive)
REMARK    1  A    between atoms: N12_2  and  C19_15
REMARK    2  A    between atoms: C17_5  and  C19_15
REMARK    3  A    between atoms: C_7  and  C1_9
REMARK    4  A    between atoms: C1B_17  and  C1D_19
REMARK    5  A    between atoms: C1C_18  and  N14_29
REMARK    6  A    between atoms: C1E_20  and  C1M_27
REMARK                            x       y       z     vdW  Elec       q    Type
REMARK                         _______ _______ _______ _____ _____    ______ ____
ROOT
ATOM      1  C   97L A 801      28.471   3.410   6.611  0.00  0.00    +0.000 A 
ATOM      2  C1A 97L A 801      29.316   4.133   7.482  0.00  0.00    +0.000 A 
ATOM      3  C1B 97L A 801      29.224   2.307   6.223  0.00  0.00    +0.000 A 
ATOM      4  C1C 97L A 801      31.496   1.468   6.784  0.00  0.00    +0.000 C 
ATOM      5  N13 97L A 801      30.484   3.533   7.652  0.00  0.00    +0.000 NA
ATOM      6  N14 97L A 801      30.403   2.417   6.884  0.00  0.00    +0.000 N 
ENDROOT
BRANCH   1  13
ATOM      7  N1  97L A 801      23.080   6.180   4.197  0.00  0.00    +0.000 N 
ATOM      8  C13 97L A 801      25.570   5.450   5.177  0.00  0.00    +0.000 A 
ATOM      9  C15 97L A 801      24.812   3.180   5.557  0.00  0.00    +0.000 A 
ATOM     10  C17 97L A 801      25.271   6.798   4.699  0.00  0.00    +0.000 A 
ATOM     11  N   97L A 801      24.092   7.123   4.243  0.00  0.00    +0.000 NA
ATOM     12  O   97L A 801      22.230   4.135   4.492  0.00  0.00    +0.000 OA
ATOM     13  C1  97L A 801      27.118   3.783   6.138  0.00  0.00    +0.000 A 
ATOM     14  C12 97L A 801      26.843   5.080   5.688  0.00  0.00    +0.000 A 
ATOM     15  C14 97L A 801      24.535   4.486   5.121  0.00  0.00    +0.000 A 
ATOM     16  C16 97L A 801      26.067   2.837   6.049  0.00  0.00    +0.000 A 
ATOM     17  C18 97L A 801      23.231   4.869   4.600  0.00  0.00    +0.000 A 
ATOM     18 H123 97L A 801      22.175   6.437   3.854  0.00  0.00    +0.000 HD
BRANCH  10  19
ATOM     19  C19 97L A 801      26.388   7.848   4.767  0.00  0.00    +0.000 C 
BRANCH  19  20
ATOM     20  N12 97L A 801      25.958   9.113   4.173  0.00  0.00    +0.000 N 
ATOM     21  H21 97L A 801      26.383   9.874   4.664  0.00  0.00    +0.000 HD
ATOM     22  H3  97L A 801      24.962   9.189   4.236  0.00  0.00    +0.000 HD
ATOM     23 H112 97L A 801      26.235   9.140   3.211  0.00  0.00    +0.000 HD
ENDBRANCH  19  20
ENDBRANCH  10  19
ENDBRANCH   1  13
BRANCH   3  25
ATOM     24  S   97L A 801      29.365  -0.475   5.858  0.00  0.00    +0.000 S 
ATOM     25  C1D 97L A 801      28.999   1.159   5.363  0.00  0.00    +0.000 A 
ATOM     26  C1E 97L A 801      28.440   1.161   4.109  0.00  0.00    +0.000 A 
ATOM     27  C1F 97L A 801      28.313  -0.135   3.538  0.00  0.00    +0.000 A 
ATOM     28  C1G 97L A 801      28.767  -1.133   4.376  0.00  0.00    +0.000 A 
ATOM     29  C1H 97L A 801      27.804  -0.490   2.270  0.00  0.00    +0.000 A 
ATOM     30  C1I 97L A 801      27.763  -1.810   1.883  0.00  0.00    +0.000 A 
ATOM     31  C1K 97L A 801      28.732  -2.472   3.991  0.00  0.00    +0.000 A 
ATOM     32  C1L 97L A 801      28.218  -2.803   2.751  0.00  0.00    +0.000 A 
BRANCH  26  33
ATOM     33  C1M 97L A 801      28.035   2.342   3.411  0.00  0.00    +0.000 C 
ATOM     34  N15 97L A 801      27.699   3.280   2.864  0.00  0.00    +0.000 NA
ENDBRANCH  26  33
ENDBRANCH   3  25
TORSDOF 5
ENDMDL
MODEL 2
REMARK VINA RESULT:      -1.5      1.870      2.940
REMARK  Name = ligand_pdbs\97L.pdb
REMARK  6 active torsions:
REMARK  status: ('A' for Active; 'I' for Inactive)
REMARK    1  A    between atoms: N12_2  and  C19_15
REMARK    2  A    between atoms: C17_5  and  C19_15
REMARK    3  A    between atoms: C_7  and  C1_9
REMARK    4  A    between atoms: C1B_17  and  C1D_19
REMARK    5  A    between atoms: C1C_18  and  N14_29
REMARK    6  A    between atoms: C1E_20  and  C1M_27
REMARK                            x       y       z     vdW  Elec       q    Type
REMARK                         _______ _______ _______ _____ _____    ______ ____
ROOT
ATOM      1  C   97L A 801      29.437   2.990   5.809  0.00  0.00    +0.000 A 
ATOM      2  C1A 97L A 801      30.650   3.559   6.255  0.00  0.00    +0.000 A 
ATOM      3  C1B 97L A 801      29.702   1.629   5.706  0.00  0.00    +0.000 A 
ATOM      4  C1C 97L A 801      31.683   0.203   6.179  0.00  0.00    +0.000 C 
ATOM      5  N13 97L A 801      31.588   2.644   6.445  0.00  0.00    +0.000 NA
ATOM      6  N14 97L A 801      30.986   1.474   6.114  0.00  0.00    +0.000 N 
ENDROOT
BRANCH   1  13
ATOM      7  N1  97L A 801      23.386   4.885   4.268  0.00  0.00    +0.000 N 
ATOM      8  C13 97L A 801      25.781   3.624   4.875  0.00  0.00    +0.000 A 
ATOM      9  C15 97L A 801      26.904   5.757   5.111  0.00  0.00    +0.000 A 
ATOM     10  C17 97L A 801      24.547   2.891   4.603  0.00  0.00    +0.000 A 
ATOM     11  N   97L A 801      23.429   3.502   4.317  0.00  0.00    +0.000 NA
ATOM     12  O   97L A 801      24.278   6.926   4.444  0.00  0.00    +0.000 OA
ATOM     13  C1  97L A 801      28.184   3.690   5.440  0.00  0.00    +0.000 A 
ATOM     14  C12 97L A 801      27.009   2.976   5.176  0.00  0.00    +0.000 A 
ATOM     15  C14 97L A 801      25.732   5.037   4.832  0.00  0.00    +0.000 A 
ATOM     16  C16 97L A 801      28.096   5.104   5.409  0.00  0.00    +0.000 A 
ATOM     17  C18 97L A 801      24.473   5.698   4.520  0.00  0.00    +0.000 A 
ATOM     18 H123 97L A 801      22.530   5.349   4.040  0.00  0.00    +0.000 HD
BRANCH  10  19
ATOM     19  C19 97L A 801      24.599   1.358   4.640  0.00  0.00    +0.000 C 
BRANCH  19  20
ATOM     20  N12 97L A 801      24.892   0.809   3.317  0.00  0.00    +0.000 N 
ATOM     21  H21 97L A 801      24.497  -0.107   3.241  0.00  0.00    +0.000 HD
ATOM     22  H3  97L A 801      25.884   0.757   3.191  0.00  0.00    +0.000 HD
ATOM     23 H112 97L A 801      24.497   1.402   2.614  0.00  0.00    +0.000 HD
ENDBRANCH  19  20
ENDBRANCH  10  19
ENDBRANCH   1  13
BRANCH   3  25
ATOM     24  S   97L A 801      27.845  -0.356   6.417  0.00  0.00    +0.000 S 
ATOM     25  C1D 97L A 801      28.934   0.458   5.321  0.00  0.00    +0.000 A 
ATOM     26  C1E 97L A 801      28.898  -0.138   4.085  0.00  0.00    +0.000 A 
ATOM     27  C1F 97L A 801      28.012  -1.248   4.013  0.00  0.00    +0.000 A 
ATOM     28  C1G 97L A 801      27.358  -1.486   5.204  0.00  0.00    +0.000 A 
ATOM     29  C1H 97L A 801      27.749  -2.091   2.911  0.00  0.00    +0.000 A 
ATOM     30  C1I 97L A 801      26.853  -3.129   3.030  0.00  0.00    +0.000 A 
ATOM     31  C1K 97L A 801      26.451  -2.537   5.335  0.00  0.00    +0.000 A 
ATOM     32  C1L 97L A 801      26.196  -3.345   4.242  0.00  0.00    +0.000 A 
BRANCH  26  33
ATOM     33  C1M 97L A 801      29.682   0.283   2.966  0.00  0.00    +0.000 C 
ATOM     34  N15 97L A 801      30.307   0.602   2.073  0.00  0.00    +0.000 NA
ENDBRANCH  26  33
ENDBRANCH   3  25
TORSDOF 5
ENDMDL
MODEL 3
REMARK VINA RESULT:      -0.8      1.893      3.224
REMARK  Name = ligand_pdbs\97L.pdb
REMARK  6 active torsions:
REMARK  status: ('A' for Active; 'I' for Inactive)
REMARK    1  A    between atoms: N12_2  and  C19_15
REMARK    2  A    between atoms: C17_5  and  C19_15
REMARK    3  A    between atoms: C_7  and  C1_9
REMARK    4  A    between atoms: C1B_17  and  C1D_19
REMARK    5  A    between atoms: C1C_18  and  N14_29
REMARK    6  A    between atoms: C1E_20  and  C1M_27
REMARK                            x       y       z     vdW  Elec       q    Type
REMARK                         _______ _______ _______ _____ _____    ______ ____
ROOT
ATOM      1  C   97L A 801      29.317   3.289   5.764  0.00  0.00    +0.000 A 
ATOM      2  C1A 97L A 801      30.514   3.819   6.295  0.00  0.00    +0.000 A 
ATOM      3  C1B 97L A 801      29.593   1.943   5.547  0.00  0.00    +0.000 A 
ATOM      4  C1C 97L A 801      31.567   0.486   5.948  0.00  0.00    +0.000 C 
ATOM      5  N13 97L A 801      31.451   2.893   6.429  0.00  0.00    +0.000 NA
ATOM      6  N14 97L A 801      30.865   1.756   5.977  0.00  0.00    +0.000 N 
ENDROOT
BRANCH   1  13
ATOM      7  N1  97L A 801      23.275   5.315   4.366  0.00  0.00    +0.000 N 
ATOM      8  C13 97L A 801      25.655   4.002   4.919  0.00  0.00    +0.000 A 
ATOM      9  C15 97L A 801      26.832   6.110   5.114  0.00  0.00    +0.000 A 
ATOM     10  C17 97L A 801      24.397   3.296   4.683  0.00  0.00    +0.000 A 
ATOM     11  N   97L A 801      23.287   3.932   4.422  0.00  0.00    +0.000 NA
ATOM     12  O   97L A 801      24.217   7.335   4.507  0.00  0.00    +0.000 OA
ATOM     13  C1  97L A 801      28.072   4.016   5.423  0.00  0.00    +0.000 A 
ATOM     14  C12 97L A 801      26.875   3.328   5.193  0.00  0.00    +0.000 A 
ATOM     15  C14 97L A 801      25.637   5.416   4.869  0.00  0.00    +0.000 A 
ATOM     16  C16 97L A 801      28.016   5.431   5.386  0.00  0.00    +0.000 A 
ATOM     17  C18 97L A 801      24.385   6.104   4.585  0.00  0.00    +0.000 A 
ATOM     18 H123 97L A 801      22.423   5.797   4.157  0.00  0.00    +0.000 HD
BRANCH  10  19
ATOM     19  C19 97L A 801      24.414   1.762   4.728  0.00  0.00    +0.000 C 
BRANCH  19  20
ATOM     20  N12 97L A 801      24.571   1.198   3.389  0.00  0.00    +0.000 N 
ATOM     21  H21 97L A 801      24.811   0.230   3.460  0.00  0.00    +0.000 HD
ATOM     22  H3  97L A 801      25.298   1.688   2.903  0.00  0.00    +0.000 HD
ATOM     23 H112 97L A 801      23.711   1.292   2.884  0.00  0.00    +0.000 HD
ENDBRANCH  19  20
ENDBRANCH  10  19
ENDBRANCH   1  13
BRANCH   3  25
ATOM     24  S   97L A 801      28.344   0.683   3.368  0.00  0.00    +0.000 S 
ATOM     25  C1D 97L A 801      28.843   0.809   5.037  0.00  0.00    +0.000 A 
ATOM     26  C1E 97L A 801      28.470  -0.315   5.730  0.00  0.00    +0.000 A 
ATOM     27  C1F 97L A 801      27.778  -1.271   4.937  0.00  0.00    +0.000 A 
ATOM     28  C1G 97L A 801      27.639  -0.874   3.623  0.00  0.00    +0.000 A 
ATOM     29  C1H 97L A 801      27.242  -2.517   5.332  0.00  0.00    +0.000 A 
ATOM     30  C1I 97L A 801      26.595  -3.316   4.417  0.00  0.00    +0.000 A 
ATOM     31  C1K 97L A 801      26.982  -1.675   2.690  0.00  0.00    +0.000 A 
ATOM     32  C1L 97L A 801      26.476  -2.897   3.091  0.00  0.00    +0.000 A 
BRANCH  26  33
ATOM     33  C1M 97L A 801      28.720  -0.521   7.123  0.00  0.00    +0.000 C 
ATOM     34  N15 97L A 801      28.935  -0.683   8.227  0.00  0.00    +0.000 NA
ENDBRANCH  26  33
ENDBRANCH   3  25
TORSDOF 5
ENDMDL
MODEL 4
REMARK VINA RESULT:      -0.1      2.371      4.529
REMARK  Name = ligand_pdbs\97L.pdb
REMARK  6 active torsions:
REMARK  status: ('A' for Active; 'I' for Inactive)
REMARK    1  A    between atoms: N12_2  and  C19_15
REMARK    2  A    between atoms: C17_5  and  C19_15
REMARK    3  A    between atoms: C_7  and  C1_9
REMARK    4  A    between atoms: C1B_17  and  C1D_19
REMARK    5  A    between atoms: C1C_18  and  N14_29
REMARK    6  A    between atoms: C1E_20  and  C1M_27
REMARK                            x       y       z     vdW  Elec       q    Type
REMARK                         _______ _______ _______ _____ _____    ______ ____
ROOT
ATOM      1  C   97L A 801      25.077   1.869   3.587  0.00  0.00    +0.000 A 
ATOM      2  C1A 97L A 801      24.129   1.083   2.896  0.00  0.00    +0.000 A 
ATOM      3  C1B 97L A 801      26.151   1.015   3.809  0.00  0.00    +0.000 A 
ATOM      4  C1C 97L A 801      26.646  -1.347   3.210  0.00  0.00    +0.000 C 
ATOM      5  N13 97L A 801      24.570  -0.146   2.675  0.00  0.00    +0.000 NA
ATOM      6  N14 97L A 801      25.808  -0.163   3.230  0.00  0.00    +0.000 N 
ENDROOT
BRANCH   1  13
ATOM      7  N1  97L A 801      25.725   8.081   5.475  0.00  0.00    +0.000 N 
ATOM      8  C13 97L A 801      25.941   5.432   4.680  0.00  0.00    +0.000 A 
ATOM      9  C15 97L A 801      23.530   5.200   4.623  0.00  0.00    +0.000 A 
ATOM     10  C17 97L A 801      27.104   6.287   4.913  0.00  0.00    +0.000 A 
ATOM     11  N   97L A 801      26.982   7.531   5.289  0.00  0.00    +0.000 NA
ATOM     12  O   97L A 801      23.492   8.025   5.475  0.00  0.00    +0.000 OA
ATOM     13  C1  97L A 801      24.931   3.266   4.057  0.00  0.00    +0.000 A 
ATOM     14  C12 97L A 801      26.053   4.073   4.283  0.00  0.00    +0.000 A 
ATOM     15  C14 97L A 801      24.658   6.000   4.864  0.00  0.00    +0.000 A 
ATOM     16  C16 97L A 801      23.662   3.871   4.229  0.00  0.00    +0.000 A 
ATOM     17  C18 97L A 801      24.547   7.393   5.274  0.00  0.00    +0.000 A 
ATOM     18 H123 97L A 801      25.637   9.033   5.772  0.00  0.00    +0.000 HD
BRANCH  10  19
ATOM     19  C19 97L A 801      28.497   5.671   4.725  0.00  0.00    +0.000 C 
BRANCH  19  20
ATOM     20  N12 97L A 801      28.700   5.242   3.343  0.00  0.00    +0.000 N 
ATOM     21  H21 97L A 801      28.256   4.357   3.199  0.00  0.00    +0.000 HD
ATOM     22  H3  97L A 801      29.681   5.156   3.162  0.00  0.00    +0.000 HD
ATOM     23 H112 97L A 801      28.304   5.919   2.721  0.00  0.00    +0.000 HD
ENDBRANCH  19  20
ENDBRANCH  10  19
ENDBRANCH   1  13
BRANCH   3  25
ATOM     24  S   97L A 801      28.518   2.491   4.146  0.00  0.00    +0.000 S 
ATOM     25  C1D 97L A 801      27.452   1.140   4.442  0.00  0.00    +0.000 A 
ATOM     26  C1E 97L A 801      28.006   0.293   5.369  0.00  0.00    +0.000 A 
ATOM     27  C1F 97L A 801      29.282   0.712   5.835  0.00  0.00    +0.000 A 
ATOM     28  C1G 97L A 801      29.693   1.900   5.266  0.00  0.00    +0.000 A 
ATOM     29  C1H 97L A 801      30.130   0.073   6.765  0.00  0.00    +0.000 A 
ATOM     30  C1I 97L A 801      31.345   0.632   7.095  0.00  0.00    +0.000 A 
ATOM     31  C1K 97L A 801      30.922   2.472   5.592  0.00  0.00    +0.000 A 
ATOM     32  C1L 97L A 801      31.735   1.840   6.514  0.00  0.00    +0.000 A 
BRANCH  26  33
ATOM     33  C1M 97L A 801      27.390  -0.916   5.824  0.00  0.00    +0.000 C 
ATOM     34  N15 97L A 801      26.906  -1.882   6.172  0.00  0.00    +0.000 NA
ENDBRANCH  26  33
ENDBRANCH   3  25
TORSDOF 5
ENDMDL
MODEL 5
REMARK VINA RESULT:       0.0      1.183      1.845
REMARK  Name = ligand_pdbs\97L.pdb
REMARK  6 active torsions:
REMARK  status: ('A' for Active; 'I' for Inactive)
REMARK    1  A    between atoms: N12_2  and  C19_15
REMARK    2  A    between atoms: C17_5  and  C19_15
REMARK    3  A    between atoms: C_7  and  C1_9
REMARK    4  A    between atoms: C1B_17  and  C1D_19
REMARK    5  A    between atoms: C1C_18  and  N14_29
REMARK    6  A    between atoms: C1E_20  and  C1M_27
REMARK                            x       y       z     vdW  Elec       q    Type
REMARK                         _______ _______ _______ _____ _____    ______ ____
ROOT
ATOM      1  C   97L A 801      28.543   3.469   6.398  0.00  0.00    +0.000 A 
ATOM      2  C1A 97L A 801      29.418   4.182   7.247  0.00  0.00    +0.000 A 
ATOM      3  C1B 97L A 801      29.279   2.366   5.977  0.00  0.00    +0.000 A 
ATOM      4  C1C 97L A 801      31.564   1.514   6.460  0.00  0.00    +0.000 C 
ATOM      5  N13 97L A 801      30.588   3.576   7.375  0.00  0.00    +0.000 NA
ATOM      6  N14 97L A 801      30.478   2.467   6.602  0.00  0.00    +0.000 N 
ENDROOT
BRANCH   1  13
ATOM      7  N1  97L A 801      23.078   6.299   4.230  0.00  0.00    +0.000 N 
ATOM      8  C13 97L A 801      25.594   5.547   5.124  0.00  0.00    +0.000 A 
ATOM      9  C15 97L A 801      24.865   3.254   5.406  0.00  0.00    +0.000 A 
ATOM     10  C17 97L A 801      25.274   6.914   4.718  0.00  0.00    +0.000 A 
ATOM     11  N   97L A 801      24.082   7.249   4.302  0.00  0.00    +0.000 NA
ATOM     12  O   97L A 801      22.254   4.233   4.441  0.00  0.00    +0.000 OA
ATOM     13  C1  97L A 801      27.177   3.851   5.971  0.00  0.00    +0.000 A 
ATOM     14  C12 97L A 801      26.881   5.165   5.590  0.00  0.00    +0.000 A 
ATOM     15  C14 97L A 801      24.568   4.576   5.041  0.00  0.00    +0.000 A 
ATOM     16  C16 97L A 801      26.133   2.899   5.856  0.00  0.00    +0.000 A 
ATOM     17  C18 97L A 801      23.249   4.971   4.565  0.00  0.00    +0.000 A 
ATOM     18 H123 97L A 801      22.165   6.563   3.919  0.00  0.00    +0.000 HD
BRANCH  10  19
ATOM     19  C19 97L A 801      26.382   7.971   4.816  0.00  0.00    +0.000 C 
BRANCH  19  20
ATOM     20  N12 97L A 801      25.996   9.202   4.130  0.00  0.00    +0.000 N 
ATOM     21  H21 97L A 801      25.987   9.045   3.142  0.00  0.00    +0.000 HD
ATOM     22  H3  97L A 801      26.655   9.925   4.348  0.00  0.00    +0.000 HD
ATOM     23 H112 97L A 801      25.083   9.481   4.431  0.00  0.00    +0.000 HD
ENDBRANCH  19  20
ENDBRANCH  10  19
ENDBRANCH   1  13
BRANCH   3  25
ATOM     24  S   97L A 801      28.948   1.355   3.377  0.00  0.00    +0.000 S 
ATOM     25  C1D 97L A 801      29.021   1.226   5.116  0.00  0.00    +0.000 A 
ATOM     26  C1E 97L A 801      28.856  -0.082   5.502  0.00  0.00    +0.000 A 
ATOM     27  C1F 97L A 801      28.661  -0.977   4.416  0.00  0.00    +0.000 A 
ATOM     28  C1G 97L A 801      28.694  -0.344   3.190  0.00  0.00    +0.000 A 
ATOM     29  C1H 97L A 801      28.443  -2.371   4.455  0.00  0.00    +0.000 A 
ATOM     30  C1I 97L A 801      28.269  -3.081   3.288  0.00  0.00    +0.000 A 
ATOM     31  C1K 97L A 801      28.516  -1.053   2.003  0.00  0.00    +0.000 A 
ATOM     32  C1L 97L A 801      28.317  -2.420   2.060  0.00  0.00    +0.000 A 
BRANCH  26  33
ATOM     33  C1M 97L A 801      28.854  -0.525   6.862  0.00  0.00    +0.000 C 
ATOM     34  N15 97L A 801      28.863  -0.865   7.946  0.00  0.00    +0.000 NA
ENDBRANCH  26  33
ENDBRANCH   3  25
TORSDOF 5
ENDMDL
MODEL 6
REMARK VINA RESULT:       0.4      2.249      4.545
REMARK  Name = ligand_pdbs\97L.pdb
REMARK  6 active torsions:
REMARK  status: ('A' for Active; 'I' for Inactive)
REMARK    1  A    between atoms: N12_2  and  C19_15
REMARK    2  A    between atoms: C17_5  and  C19_15
REMARK    3  A    between atoms: C_7  and  C1_9
REMARK    4  A    between atoms: C1B_17  and  C1D_19
REMARK    5  A    between atoms: C1C_18  and  N14_29
REMARK    6  A    between atoms: C1E_20  and  C1M_27
REMARK                            x       y       z     vdW  Elec       q    Type
REMARK                         _______ _______ _______ _____ _____    ______ ____
ROOT
ATOM      1  C   97L A 801      26.528   1.797   2.978  0.00  0.00    +0.000 A 
ATOM      2  C1A 97L A 801      25.618   1.200   2.077  0.00  0.00    +0.000 A 
ATOM      3  C1B 97L A 801      27.309   0.744   3.440  0.00  0.00    +0.000 A 
ATOM      4  C1C 97L A 801      27.405  -1.693   2.957  0.00  0.00    +0.000 C 
ATOM      5  N13 97L A 801      25.820  -0.103   1.957  0.00  0.00    +0.000 NA
ATOM      6  N14 97L A 801      26.862  -0.358   2.788  0.00  0.00    +0.000 N 
ENDROOT
BRANCH   1  13
ATOM      7  N1  97L A 801      25.500   7.872   5.124  0.00  0.00    +0.000 N 
ATOM      8  C13 97L A 801      25.447   5.250   4.221  0.00  0.00    +0.000 A 
ATOM      9  C15 97L A 801      27.862   5.213   4.029  0.00  0.00    +0.000 A 
ATOM     10  C17 97L A 801      24.239   5.988   4.582  0.00  0.00    +0.000 A 
ATOM     11  N   97L A 801      24.284   7.223   5.004  0.00  0.00    +0.000 NA
ATOM     12  O   97L A 801      27.727   7.997   4.997  0.00  0.00    +0.000 OA
ATOM     13  C1  97L A 801      26.583   3.212   3.411  0.00  0.00    +0.000 A 
ATOM     14  C12 97L A 801      25.418   3.910   3.749  0.00  0.00    +0.000 A 
ATOM     15  C14 97L A 801      26.690   5.914   4.352  0.00  0.00    +0.000 A 
ATOM     16  C16 97L A 801      27.812   3.899   3.574  0.00  0.00    +0.000 A 
ATOM     17  C18 97L A 801      26.716   7.289   4.833  0.00  0.00    +0.000 A 
ATOM     18 H123 97L A 801      25.529   8.822   5.439  0.00  0.00    +0.000 HD
BRANCH  10  19
ATOM     19  C19 97L A 801      22.889   5.274   4.432  0.00  0.00    +0.000 C 
BRANCH  19  20
ATOM     20  N12 97L A 801      23.030   3.833   4.634  0.00  0.00    +0.000 N 
ATOM     21  H21 97L A 801      22.862   3.613   5.596  0.00  0.00    +0.000 HD
ATOM     22  H3  97L A 801      23.958   3.550   4.384  0.00  0.00    +0.000 HD
ATOM     23 H112 97L A 801      22.367   3.349   4.061  0.00  0.00    +0.000 HD
ENDBRANCH  19  20
ENDBRANCH  10  19
ENDBRANCH   1  13
BRANCH   3  25
ATOM     24  S   97L A 801      29.877  -0.267   3.969  0.00  0.00    +0.000 S 
ATOM     25  C1D 97L A 801      28.424   0.618   4.362  0.00  0.00    +0.000 A 
ATOM     26  C1E 97L A 801      28.537   1.188   5.606  0.00  0.00    +0.000 A 
ATOM     27  C1F 97L A 801      29.774   0.912   6.250  0.00  0.00    +0.000 A 
ATOM     28  C1G 97L A 801      30.615   0.136   5.479  0.00  0.00    +0.000 A 
ATOM     29  C1H 97L A 801      30.208   1.321   7.529  0.00  0.00    +0.000 A 
ATOM     30  C1I 97L A 801      31.451   0.950   7.993  0.00  0.00    +0.000 A 
ATOM     31  C1K 97L A 801      31.873  -0.247   5.940  0.00  0.00    +0.000 A 
ATOM     32  C1L 97L A 801      32.288   0.174   7.190  0.00  0.00    +0.000 A 
BRANCH  26  33
ATOM     33  C1M 97L A 801      27.514   1.971   6.228  0.00  0.00    +0.000 C 
ATOM     34  N15 97L A 801      26.712   2.596   6.734  0.00  0.00    +0.000 NA
ENDBRANCH  26  33
ENDBRANCH   3  25
TORSDOF 5
ENDMDL
MODEL 7
REMARK VINA RESULT:       0.4      2.094      4.292
REMARK  Name = ligand_pdbs\97L.pdb
REMARK  6 active torsions:
REMARK  status: ('A' for Active; 'I' for Inactive)
REMARK    1  A    between atoms: N12_2  and  C19_15
REMARK    2  A    between atoms: C17_5  and  C19_15
REMARK    3  A    between atoms: C_7  and  C1_9
REMARK    4  A    between atoms: C1B_17  and  C1D_19
REMARK    5  A    between atoms: C1C_18  and  N14_29
REMARK    6  A    between atoms: C1E_20  and  C1M_27
REMARK                            x       y       z     vdW  Elec       q    Type
REMARK                         _______ _______ _______ _____ _____    ______ ____
ROOT
ATOM      1  C   97L A 801      24.970   1.714   3.900  0.00  0.00    +0.000 A 
ATOM      2  C1A 97L A 801      23.996   0.935   3.238  0.00  0.00    +0.000 A 
ATOM      3  C1B 97L A 801      25.994   0.822   4.197  0.00  0.00    +0.000 A 
ATOM      4  C1C 97L A 801      26.378  -1.594   3.754  0.00  0.00    +0.000 C 
ATOM      5  N13 97L A 801      24.377  -0.326   3.102  0.00  0.00    +0.000 NA
ATOM      6  N14 97L A 801      25.601  -0.370   3.683  0.00  0.00    +0.000 N 
ENDROOT
BRANCH   1  13
ATOM      7  N1  97L A 801      25.897   7.905   5.740  0.00  0.00    +0.000 N 
ATOM      8  C13 97L A 801      25.971   5.208   5.095  0.00  0.00    +0.000 A 
ATOM      9  C15 97L A 801      23.647   5.256   4.412  0.00  0.00    +0.000 A 
ATOM     10  C17 97L A 801      27.133   5.933   5.604  0.00  0.00    +0.000 A 
ATOM     11  N   97L A 801      27.079   7.202   5.904  0.00  0.00    +0.000 NA
ATOM     12  O   97L A 801      23.751   8.110   5.155  0.00  0.00    +0.000 OA
ATOM     13  C1  97L A 801      24.887   3.143   4.282  0.00  0.00    +0.000 A 
ATOM     14  C12 97L A 801      26.007   3.825   4.774  0.00  0.00    +0.000 A 
ATOM     15  C14 97L A 801      24.767   5.932   4.921  0.00  0.00    +0.000 A 
ATOM     16  C16 97L A 801      23.704   3.901   4.099  0.00  0.00    +0.000 A 
ATOM     17  C18 97L A 801      24.732   7.349   5.253  0.00  0.00    +0.000 A 
ATOM     18 H123 97L A 801      25.859   8.876   5.980  0.00  0.00    +0.000 HD
BRANCH  10  19
ATOM     19  C19 97L A 801      28.437   5.149   5.804  0.00  0.00    +0.000 C 
BRANCH  19  20
ATOM     20  N12 97L A 801      28.370   4.311   7.000  0.00  0.00    +0.000 N 
ATOM     21  H21 97L A 801      29.252   3.860   7.140  0.00  0.00    +0.000 HD
ATOM     22  H3  97L A 801      27.655   3.620   6.883  0.00  0.00    +0.000 HD
ATOM     23 H112 97L A 801      28.157   4.881   7.795  0.00  0.00    +0.000 HD
ENDBRANCH  19  20
ENDBRANCH  10  19
ENDBRANCH   1  13
BRANCH   3  25
ATOM     24  S   97L A 801      27.782  -0.159   6.130  0.00  0.00    +0.000 S 
ATOM     25  C1D 97L A 801      27.288   0.921   4.849  0.00  0.00    +0.000 A 
ATOM     26  C1E 97L A 801      28.302   1.795   4.548  0.00  0.00    +0.000 A 
ATOM     27  C1F 97L A 801      29.467   1.614   5.342  0.00  0.00    +0.000 A 
ATOM     28  C1G 97L A 801      29.341   0.579   6.246  0.00  0.00    +0.000 A 
ATOM     29  C1H 97L A 801      30.674   2.345   5.309  0.00  0.00    +0.000 A 
ATOM     30  C1I 97L A 801      31.704   2.025   6.166  0.00  0.00    +0.000 A 
ATOM     31  C1K 97L A 801      30.376   0.250   7.119  0.00  0.00    +0.000 A 
ATOM     32  C1L 97L A 801      31.556   0.967   7.064  0.00  0.00    +0.000 A 
BRANCH  26  33
ATOM     33  C1M 97L A 801      28.213   2.816   3.550  0.00  0.00    +0.000 C 
ATOM     34  N15 97L A 801      28.128   3.630   2.762  0.00  0.00    +0.000 NA
ENDBRANCH  26  33
ENDBRANCH   3  25
TORSDOF 5
ENDMDL
MODEL 8
REMARK VINA RESULT:       1.2      2.302      4.548
REMARK  Name = ligand_pdbs\97L.pdb
REMARK  6 active torsions:
REMARK  status: ('A' for Active; 'I' for Inactive)
REMARK    1  A    between atoms: N12_2  and  C19_15
REMARK    2  A    between atoms: C17_5  and  C19_15
REMARK    3  A    between atoms: C_7  and  C1_9
REMARK    4  A    between atoms: C1B_17  and  C1D_19
REMARK    5  A    between atoms: C1C_18  and  N14_29
REMARK    6  A    between atoms: C1E_20  and  C1M_27
REMARK                            x       y       z     vdW  Elec       q    Type
REMARK                         _______ _______ _______ _____ _____    ______ ____
ROOT
ATOM      1  C   97L A 801      26.599   0.608   2.405  0.00  0.00    +0.000 A 
ATOM      2  C1A 97L A 801      26.300  -0.124   1.235  0.00  0.00    +0.000 A 
ATOM      3  C1B 97L A 801      27.750   0.014   2.909  0.00  0.00    +0.000 A 
ATOM      4  C1C 97L A 801      29.222  -1.843   2.155  0.00  0.00    +0.000 C 
ATOM      5  N13 97L A 801      27.192  -1.074   1.002  0.00  0.00    +0.000 NA
ATOM      6  N14 97L A 801      28.073  -0.966   2.029  0.00  0.00    +0.000 N 
ENDROOT
BRANCH   1  13
ATOM      7  N1  97L A 801      24.230   6.139   4.931  0.00  0.00    +0.000 N 
ATOM      8  C13 97L A 801      25.670   4.020   3.866  0.00  0.00    +0.000 A 
ATOM      9  C15 97L A 801      23.678   2.645   3.774  0.00  0.00    +0.000 A 
ATOM     10  C17 97L A 801      26.280   5.307   4.192  0.00  0.00    +0.000 A 
ATOM     11  N   97L A 801      25.586   6.292   4.694  0.00  0.00    +0.000 NA
ATOM     12  O   97L A 801      22.309   4.998   4.914  0.00  0.00    +0.000 OA
ATOM     13  C1  97L A 801      25.814   1.705   3.017  0.00  0.00    +0.000 A 
ATOM     14  C12 97L A 801      26.411   2.932   3.330  0.00  0.00    +0.000 A 
ATOM     15  C14 97L A 801      24.283   3.868   4.101  0.00  0.00    +0.000 A 
ATOM     16  C16 97L A 801      24.420   1.594   3.245  0.00  0.00    +0.000 A 
ATOM     17  C18 97L A 801      23.527   4.984   4.654  0.00  0.00    +0.000 A 
ATOM     18 H123 97L A 801      23.705   6.894   5.324  0.00  0.00    +0.000 HD
BRANCH  10  19
ATOM     19  C19 97L A 801      27.786   5.472   3.947  0.00  0.00    +0.000 C 
BRANCH  19  20
ATOM     20  N12 97L A 801      28.564   4.752   4.953  0.00  0.00    +0.000 N 
ATOM     21  H21 97L A 801      29.266   5.358   5.328  0.00  0.00    +0.000 HD
ATOM     22  H3  97L A 801      29.001   3.956   4.531  0.00  0.00    +0.000 HD
ATOM     23 H112 97L A 801      27.958   4.448   5.690  0.00  0.00    +0.000 HD
ENDBRANCH  19  20
ENDBRANCH  10  19
ENDBRANCH   1  13
BRANCH   3  25
ATOM     24  S   97L A 801      29.825   1.496   4.091  0.00  0.00    +0.000 S 
ATOM     25  C1D 97L A 801      28.607   0.244   4.058  0.00  0.00    +0.000 A 
ATOM     26  C1E 97L A 801      28.569  -0.411   5.264  0.00  0.00    +0.000 A 
ATOM     27  C1F 97L A 801      29.514   0.074   6.209  0.00  0.00    +0.000 A 
ATOM     28  C1G 97L A 801      30.267   1.121   5.719  0.00  0.00    +0.000 A 
ATOM     29  C1H 97L A 801      29.754  -0.380   7.523  0.00  0.00    +0.000 A 
ATOM     30  C1I 97L A 801      30.723   0.216   8.298  0.00  0.00    +0.000 A 
ATOM     31  C1K 97L A 801      31.253   1.729   6.495  0.00  0.00    +0.000 A 
ATOM     32  C1L 97L A 801      31.466   1.280   7.785  0.00  0.00    +0.000 A 
BRANCH  26  33
ATOM     33  C1M 97L A 801      27.687  -1.498   5.561  0.00  0.00    +0.000 C 
ATOM     34  N15 97L A 801      26.980  -2.359   5.782  0.00  0.00    +0.000 NA
ENDBRANCH  26  33
ENDBRANCH   3  25
TORSDOF 5
ENDMDL
MODEL 9
REMARK VINA RESULT:       1.3      3.258      7.893
REMARK  Name = ligand_pdbs\97L.pdb
REMARK  6 active torsions:
REMARK  status: ('A' for Active; 'I' for Inactive)
REMARK    1  A    between atoms: N12_2  and  C19_15
REMARK    2  A    between atoms: C17_5  and  C19_15
REMARK    3  A    between atoms: C_7  and  C1_9
REMARK    4  A    between atoms: C1B_17  and  C1D_19
REMARK    5  A    between atoms: C1C_18  and  N14_29
REMARK    6  A    between atoms: C1E_20  and  C1M_27
REMARK                            x       y       z     vdW  Elec       q    Type
REMARK                         _______ _______ _______ _____ _____    ______ ____
ROOT
ATOM      1  C   97L A 801      25.455   1.361   4.492  0.00  0.00    +0.000 A 
ATOM      2  C1A 97L A 801      24.602   0.365   3.968  0.00  0.00    +0.000 A 
ATOM      3  C1B 97L A 801      24.803   2.560   4.228  0.00  0.00    +0.000 A 
ATOM      4  C1C 97L A 801      22.631   3.163   3.178  0.00  0.00    +0.000 C 
ATOM      5  N13 97L A 801      23.500   0.880   3.445  0.00  0.00    +0.000 NA
ATOM      6  N14 97L A 801      23.638   2.218   3.623  0.00  0.00    +0.000 N 
ENDROOT
BRANCH   1  13
ATOM      7  N1  97L A 801      31.541  -0.252   6.207  0.00  0.00    +0.000 N 
ATOM      8  C13 97L A 801      28.992   0.063   5.157  0.00  0.00    +0.000 A 
ATOM      9  C15 97L A 801      28.534   1.887   6.684  0.00  0.00    +0.000 A 
ATOM     10  C17 97L A 801      29.935  -0.938   4.662  0.00  0.00    +0.000 A 
ATOM     11  N   97L A 801      31.130  -1.073   5.171  0.00  0.00    +0.000 NA
ATOM     12  O   97L A 801      31.270   1.406   7.680  0.00  0.00    +0.000 OA
ATOM     13  C1  97L A 801      26.792   1.184   5.105  0.00  0.00    +0.000 A 
ATOM     14  C12 97L A 801      27.684   0.217   4.625  0.00  0.00    +0.000 A 
ATOM     15  C14 97L A 801      29.418   0.906   6.212  0.00  0.00    +0.000 A 
ATOM     16  C16 97L A 801      27.258   2.025   6.146  0.00  0.00    +0.000 A 
ATOM     17  C18 97L A 801      30.759   0.743   6.756  0.00  0.00    +0.000 A 
ATOM     18 H123 97L A 801      32.454  -0.365   6.599  0.00  0.00    +0.000 HD
BRANCH  10  19
ATOM     19  C19 97L A 801      29.472  -1.860   3.526  0.00  0.00    +0.000 C 
BRANCH  19  20
ATOM     20  N12 97L A 801      30.188  -3.133   3.557  0.00  0.00    +0.000 N 
ATOM     21  H21 97L A 801      30.042  -3.578   4.441  0.00  0.00    +0.000 HD
ATOM     22  H3  97L A 801      31.168  -2.969   3.424  0.00  0.00    +0.000 HD
ATOM     23 H112 97L A 801      29.848  -3.726   2.825  0.00  0.00    +0.000 HD
ENDBRANCH  19  20
ENDBRANCH  10  19
ENDBRANCH   1  13
BRANCH   3  25
ATOM     24  S   97L A 801      23.898   5.053   5.156  0.00  0.00    +0.000 S 
ATOM     25  C1D 97L A 801      25.084   3.962   4.483  0.00  0.00    +0.000 A 
ATOM     26  C1E 97L A 801      26.278   4.614   4.299  0.00  0.00    +0.000 A 
ATOM     27  C1F 97L A 801      26.246   5.982   4.683  0.00  0.00    +0.000 A 
ATOM     28  C1G 97L A 801      25.018   6.368   5.179  0.00  0.00    +0.000 A 
ATOM     29  C1H 97L A 801      27.282   6.938   4.610  0.00  0.00    +0.000 A 
ATOM     30  C1I 97L A 801      27.065   8.232   5.029  0.00  0.00    +0.000 A 
ATOM     31  C1K 97L A 801      24.787   7.676   5.603  0.00  0.00    +0.000 A 
ATOM     32  C1L 97L A 801      25.817   8.596   5.537  0.00  0.00    +0.000 A 
BRANCH  26  33
ATOM     33  C1M 97L A 801      27.451   4.004   3.753  0.00  0.00    +0.000 C 
ATOM     34  N15 97L A 801      28.384   3.511   3.333  0.00  0.00    +0.000 NA
ENDBRANCH  26  33
ENDBRANCH   3  25
TORSDOF 5
ENDMDL
