MODEL 1
REMARK VINA RESULT:      -0.5      0.000      0.000
REMARK  Name = ligand_pdbs\97X.pdb
REMARK  4 active torsions:
REMARK  status: ('A' for Active; 'I' for Inactive)
REMARK    1  A    between atoms: C10_5  and  C11_13
REMARK    2  A    between atoms: C17_9  and  C16_14
REMARK    3  A    between atoms: C2_17  and  C3_21
REMARK    4  A    between atoms: C23_18  and  C29_20
REMARK                            x       y       z     vdW  Elec       q    Type
REMARK                         _______ _______ _______ _____ _____    ______ ____
ROOT
ATOM      1  N12 97X A 701      30.892   1.796   6.122  0.00  0.00    +0.000 N 
ATOM      2  C13 97X A 701      31.655   0.565   6.019  0.00  0.00    +0.000 C 
ATOM      3  C15 97X A 701      30.286   3.871   6.634  0.00  0.00    +0.000 A 
ATOM      4  C11 97X A 701      29.624   2.013   5.578  0.00  0.00    +0.000 A 
ATOM      5  C16 97X A 701      29.245   3.271   5.886  0.00  0.00    +0.000 A 
ATOM      6  N14 97X A 701      31.319   2.968   6.792  0.00  0.00    +0.000 NA
ENDROOT
BRANCH   5   7
ATOM      7  C17 97X A 701      27.962   4.035   5.545  0.00  0.00    +0.000 A 
ATOM      8  C20 97X A 701      25.572   5.294   4.888  0.00  0.00    +0.000 A 
ATOM      9  C21 97X A 701      25.613   3.907   4.937  0.00  0.00    +0.000 A 
ATOM     10  C22 97X A 701      26.817   3.296   5.266  0.00  0.00    +0.000 A 
ATOM     11  C18 97X A 701      27.887   5.416   5.481  0.00  0.00    +0.000 A 
ATOM     12  C19 97X A 701      26.700   6.055   5.159  0.00  0.00    +0.000 A 
ATOM     13  C23 97X A 701      24.406   3.167   4.650  0.00  0.00    +0.000 C 
ATOM     14  C27 97X A 701      24.311   5.978   4.547  0.00  0.00    +0.000 C 
ATOM     15  N24 97X A 701      23.239   3.819   4.331  0.00  0.00    +0.000 NA
ATOM     16  N25 97X A 701      23.174   5.223   4.275  0.00  0.00    +0.000 NA
ATOM     17  O28 97X A 701      24.246   7.370   4.498  0.00  0.00    +0.000 OA
BRANCH  13  18
ATOM     18  C29 97X A 701      24.422   1.644   4.700  0.00  0.00    +0.000 C 
ATOM     19  N30 97X A 701      24.621   1.117   3.363  0.00  0.00    +0.000 NA
ENDBRANCH  13  18
ENDBRANCH   5   7
BRANCH   4  23
ATOM     20  C4  97X A 701      27.798  -1.229   4.690  0.00  0.00    +0.000 A 
ATOM     21  C7  97X A 701      27.612  -1.071   3.308  0.00  0.00    +0.000 A 
ATOM     22  C8  97X A 701      28.077   0.078   2.693  0.00  0.00    +0.000 A 
ATOM     23  C10 97X A 701      28.893   0.923   4.791  0.00  0.00    +0.000 A 
ATOM     24  C3  97X A 701      28.444  -0.231   5.419  0.00  0.00    +0.000 A 
ATOM     25  C31 97X A 701      26.967  -2.069   2.581  0.00  0.00    +0.000 A 
ATOM     26  C32 97X A 701      26.513  -3.205   3.222  0.00  0.00    +0.000 A 
ATOM     27  C33 97X A 701      26.695  -3.359   4.576  0.00  0.00    +0.000 A 
ATOM     28  C34 97X A 701      27.332  -2.382   5.308  0.00  0.00    +0.000 A 
ATOM     29  C9  97X A 701      28.712   1.053   3.430  0.00  0.00    +0.000 A 
BRANCH  24  31
ATOM     30  N1  97X A 701      28.799  -0.536   8.031  0.00  0.00    +0.000 NA
ATOM     31  C2  97X A 701      28.642  -0.406   6.920  0.00  0.00    +0.000 C 
ENDBRANCH  24  31
ENDBRANCH   4  23
TORSDOF 4
ENDMDL
MODEL 2
REMARK VINA RESULT:      -0.1      0.997      1.888
REMARK  Name = ligand_pdbs\97X.pdb
REMARK  4 active torsions:
REMARK  status: ('A' for Active; 'I' for Inactive)
REMARK    1  A    between atoms: C10_5  and  C11_13
REMARK    2  A    between atoms: C17_9  and  C16_14
REMARK    3  A    between atoms: C2_17  and  C3_21
REMARK    4  A    between atoms: C23_18  and  C29_20
REMARK                            x       y       z     vdW  Elec       q    Type
REMARK                         _______ _______ _______ _____ _____    ______ ____
ROOT
ATOM      1  N12 97X A 701      31.088   1.345   6.196  0.00  0.00    +0.000 N 
ATOM      2  C13 97X A 701      31.777   0.074   6.328  0.00  0.00    +0.000 C 
ATOM      3  C15 97X A 701      30.660   3.525   6.169  0.00  0.00    +0.000 A 
ATOM      4  C11 97X A 701      29.745   1.508   5.850  0.00  0.00    +0.000 A 
ATOM      5  C16 97X A 701      29.473   2.831   5.834  0.00  0.00    +0.000 A 
ATOM      6  N14 97X A 701      31.675   2.618   6.399  0.00  0.00    +0.000 NA
ENDROOT
BRANCH   5   7
ATOM      7  C17 97X A 701      28.172   3.575   5.519  0.00  0.00    +0.000 A 
ATOM      8  C20 97X A 701      25.753   4.798   4.905  0.00  0.00    +0.000 A 
ATOM      9  C21 97X A 701      25.825   3.411   4.912  0.00  0.00    +0.000 A 
ATOM     10  C22 97X A 701      27.044   2.819   5.220  0.00  0.00    +0.000 A 
ATOM     11  C18 97X A 701      28.065   4.955   5.496  0.00  0.00    +0.000 A 
ATOM     12  C19 97X A 701      26.864   5.576   5.196  0.00  0.00    +0.000 A 
ATOM     13  C23 97X A 701      24.634   2.652   4.605  0.00  0.00    +0.000 C 
ATOM     14  C27 97X A 701      24.476   5.462   4.587  0.00  0.00    +0.000 C 
ATOM     15  N24 97X A 701      23.452   3.287   4.308  0.00  0.00    +0.000 NA
ATOM     16  N25 97X A 701      23.356   4.690   4.295  0.00  0.00    +0.000 NA
ATOM     17  O28 97X A 701      24.379   6.853   4.579  0.00  0.00    +0.000 OA
BRANCH  13  18
ATOM     18  C29 97X A 701      24.685   1.130   4.610  0.00  0.00    +0.000 C 
ATOM     19  N30 97X A 701      24.918   0.648   3.261  0.00  0.00    +0.000 NA
ENDBRANCH  13  18
ENDBRANCH   5   7
BRANCH   4  23
ATOM     20  C4  97X A 701      27.894  -1.307   4.039  0.00  0.00    +0.000 A 
ATOM     21  C7  97X A 701      27.130  -1.851   5.082  0.00  0.00    +0.000 A 
ATOM     22  C8  97X A 701      27.230  -1.301   6.348  0.00  0.00    +0.000 A 
ATOM     23  C10 97X A 701      28.839   0.307   5.568  0.00  0.00    +0.000 A 
ATOM     24  C3  97X A 701      28.739  -0.226   4.291  0.00  0.00    +0.000 A 
ATOM     25  C31 97X A 701      26.287  -2.930   4.829  0.00  0.00    +0.000 A 
ATOM     26  C32 97X A 701      26.207  -3.460   3.556  0.00  0.00    +0.000 A 
ATOM     27  C33 97X A 701      26.957  -2.927   2.534  0.00  0.00    +0.000 A 
ATOM     28  C34 97X A 701      27.794  -1.859   2.768  0.00  0.00    +0.000 A 
ATOM     29  C9  97X A 701      28.071  -0.234   6.578  0.00  0.00    +0.000 A 
BRANCH  24  31
ATOM     30  N1  97X A 701      30.186   0.787   2.310  0.00  0.00    +0.000 NA
ATOM     31  C2  97X A 701      29.567   0.360   3.155  0.00  0.00    +0.000 C 
ENDBRANCH  24  31
ENDBRANCH   4  23
TORSDOF 4
ENDMDL
MODEL 3
REMARK VINA RESULT:       1.6      1.639      3.089
REMARK  Name = ligand_pdbs\97X.pdb
REMARK  4 active torsions:
REMARK  status: ('A' for Active; 'I' for Inactive)
REMARK    1  A    between atoms: C10_5  and  C11_13
REMARK    2  A    between atoms: C17_9  and  C16_14
REMARK    3  A    between atoms: C2_17  and  C3_21
REMARK    4  A    between atoms: C23_18  and  C29_20
REMARK                            x       y       z     vdW  Elec       q    Type
REMARK                         _______ _______ _______ _____ _____    ______ ____
ROOT
ATOM      1  N12 97X A 701      30.356   1.927   6.890  0.00  0.00    +0.000 N 
ATOM      2  C13 97X A 701      31.291   0.831   7.070  0.00  0.00    +0.000 C 
ATOM      3  C15 97X A 701      29.455   3.958   6.887  0.00  0.00    +0.000 A 
ATOM      4  C11 97X A 701      29.069   1.818   6.359  0.00  0.00    +0.000 A 
ATOM      5  C16 97X A 701      28.511   3.047   6.356  0.00  0.00    +0.000 A 
ATOM      6  N14 97X A 701      30.609   3.279   7.226  0.00  0.00    +0.000 NA
ENDROOT
BRANCH   5   7
ATOM      7  C17 97X A 701      27.129   3.510   5.884  0.00  0.00    +0.000 A 
ATOM      8  C20 97X A 701      24.668   4.489   5.040  0.00  0.00    +0.000 A 
ATOM      9  C21 97X A 701      25.739   5.366   5.158  0.00  0.00    +0.000 A 
ATOM     10  C22 97X A 701      26.960   4.858   5.583  0.00  0.00    +0.000 A 
ATOM     11  C18 97X A 701      26.039   2.666   5.761  0.00  0.00    +0.000 A 
ATOM     12  C19 97X A 701      24.809   3.141   5.337  0.00  0.00    +0.000 A 
ATOM     13  C23 97X A 701      25.535   6.759   4.830  0.00  0.00    +0.000 C 
ATOM     14  C27 97X A 701      23.358   4.991   4.587  0.00  0.00    +0.000 C 
ATOM     15  N24 97X A 701      24.306   7.211   4.412  0.00  0.00    +0.000 NA
ATOM     16  N25 97X A 701      23.208   6.341   4.285  0.00  0.00    +0.000 NA
ATOM     17  O28 97X A 701      22.271   4.128   4.456  0.00  0.00    +0.000 OA
BRANCH  13  18
ATOM     18  C29 97X A 701      26.693   7.741   4.948  0.00  0.00    +0.000 C 
ATOM     19  N30 97X A 701      26.330   8.997   4.319  0.00  0.00    +0.000 NA
ENDBRANCH  13  18
ENDBRANCH   5   7
BRANCH   4  23
ATOM     20  C4  97X A 701      27.562  -0.945   4.185  0.00  0.00    +0.000 A 
ATOM     21  C7  97X A 701      27.423  -1.984   5.117  0.00  0.00    +0.000 A 
ATOM     22  C8  97X A 701      27.821  -1.773   6.425  0.00  0.00    +0.000 A 
ATOM     23  C10 97X A 701      28.504   0.472   5.901  0.00  0.00    +0.000 A 
ATOM     24  C3  97X A 701      28.096   0.279   4.588  0.00  0.00    +0.000 A 
ATOM     25  C31 97X A 701      26.888  -3.206   4.713  0.00  0.00    +0.000 A 
ATOM     26  C32 97X A 701      26.500  -3.389   3.400  0.00  0.00    +0.000 A 
ATOM     27  C33 97X A 701      26.637  -2.370   2.487  0.00  0.00    +0.000 A 
ATOM     28  C34 97X A 701      27.162  -1.156   2.871  0.00  0.00    +0.000 A 
ATOM     29  C9  97X A 701      28.348  -0.559   6.805  0.00  0.00    +0.000 A 
BRANCH  24  31
ATOM     30  N1  97X A 701      28.355   2.245   2.824  0.00  0.00    +0.000 NA
ATOM     31  C2  97X A 701      28.246   1.404   3.572  0.00  0.00    +0.000 C 
ENDBRANCH  24  31
ENDBRANCH   4  23
TORSDOF 4
ENDMDL
MODEL 4
REMARK VINA RESULT:       2.5      1.624      2.574
REMARK  Name = ligand_pdbs\97X.pdb
REMARK  4 active torsions:
REMARK  status: ('A' for Active; 'I' for Inactive)
REMARK    1  A    between atoms: C10_5  and  C11_13
REMARK    2  A    between atoms: C17_9  and  C16_14
REMARK    3  A    between atoms: C2_17  and  C3_21
REMARK    4  A    between atoms: C23_18  and  C29_20
REMARK                            x       y       z     vdW  Elec       q    Type
REMARK                         _______ _______ _______ _____ _____    ______ ____
ROOT
ATOM      1  N12 97X A 701      30.625   2.367   6.615  0.00  0.00    +0.000 N 
ATOM      2  C13 97X A 701      31.752   1.460   6.489  0.00  0.00    +0.000 C 
ATOM      3  C15 97X A 701      29.322   4.041   7.275  0.00  0.00    +0.000 A 
ATOM      4  C11 97X A 701      29.432   2.283   5.894  0.00  0.00    +0.000 A 
ATOM      5  C16 97X A 701      28.631   3.295   6.290  0.00  0.00    +0.000 A 
ATOM      6  N14 97X A 701      30.564   3.478   7.491  0.00  0.00    +0.000 NA
ENDROOT
BRANCH   5   7
ATOM      7  C17 97X A 701      27.221   3.684   5.834  0.00  0.00    +0.000 A 
ATOM      8  C20 97X A 701      24.704   4.531   5.015  0.00  0.00    +0.000 A 
ATOM      9  C21 97X A 701      25.734   5.459   5.099  0.00  0.00    +0.000 A 
ATOM     10  C22 97X A 701      26.984   5.017   5.512  0.00  0.00    +0.000 A 
ATOM     11  C18 97X A 701      26.170   2.788   5.745  0.00  0.00    +0.000 A 
ATOM     12  C19 97X A 701      24.912   3.197   5.334  0.00  0.00    +0.000 A 
ATOM     13  C23 97X A 701      25.459   6.834   4.750  0.00  0.00    +0.000 C 
ATOM     14  C27 97X A 701      23.364   4.963   4.576  0.00  0.00    +0.000 C 
ATOM     15  N24 97X A 701      24.204   7.221   4.345  0.00  0.00    +0.000 NA
ATOM     16  N25 97X A 701      23.146   6.299   4.253  0.00  0.00    +0.000 NA
ATOM     17  O28 97X A 701      22.317   4.047   4.479  0.00  0.00    +0.000 OA
BRANCH  13  18
ATOM     18  C29 97X A 701      26.572   7.872   4.830  0.00  0.00    +0.000 C 
ATOM     19  N30 97X A 701      26.110   9.123   4.260  0.00  0.00    +0.000 NA
ENDBRANCH  13  18
ENDBRANCH   5   7
BRANCH   4  23
ATOM     20  C4  97X A 701      28.651  -1.111   4.313  0.00  0.00    +0.000 A 
ATOM     21  C7  97X A 701      28.827  -0.828   2.950  0.00  0.00    +0.000 A 
ATOM     22  C8  97X A 701      29.191   0.452   2.570  0.00  0.00    +0.000 A 
ATOM     23  C10 97X A 701      29.195   1.178   4.862  0.00  0.00    +0.000 A 
ATOM     24  C3  97X A 701      28.843  -0.105   5.259  0.00  0.00    +0.000 A 
ATOM     25  C31 97X A 701      28.635  -1.834   2.006  0.00  0.00    +0.000 A 
ATOM     26  C32 97X A 701      28.271  -3.102   2.414  0.00  0.00    +0.000 A 
ATOM     27  C33 97X A 701      28.098  -3.379   3.750  0.00  0.00    +0.000 A 
ATOM     28  C34 97X A 701      28.286  -2.396   4.695  0.00  0.00    +0.000 A 
ATOM     29  C9  97X A 701      29.376   1.433   3.519  0.00  0.00    +0.000 A 
BRANCH  24  31
ATOM     30  N1  97X A 701      28.514  -0.652   7.835  0.00  0.00    +0.000 NA
ATOM     31  C2  97X A 701      28.649  -0.417   6.737  0.00  0.00    +0.000 C 
ENDBRANCH  24  31
ENDBRANCH   4  23
TORSDOF 4
ENDMDL
