MODEL 1
REMARK VINA RESULT:      -7.3      0.000      0.000
REMARK  Name = ligand_pdbs\9FG.pdb
REMARK  2 active torsions:
REMARK  status: ('A' for Active; 'I' for Inactive)
REMARK    1  A    between atoms: C12_1  and  C2_14
REMARK    2  A    between atoms: C5_10  and  C6_11
REMARK                            x       y       z     vdW  Elec       q    Type
REMARK                         _______ _______ _______ _____ _____    ______ ____
ROOT
ATOM      1  N1  9FG A1001      27.649   1.662   3.955  0.00  0.00    +0.000 N 
ATOM      2  C1  9FG A1001      28.614   2.169   4.919  0.00  0.00    +0.000 C 
ATOM      3  C5  9FG A1001      26.508   2.314   3.474  0.00  0.00    +0.000 A 
ATOM      4  C4  9FG A1001      25.913   1.422   2.587  0.00  0.00    +0.000 A 
ATOM      5  C3  9FG A1001      26.698   0.250   2.517  0.00  0.00    +0.000 A 
ATOM      6  C2  9FG A1001      27.762   0.417   3.371  0.00  0.00    +0.000 A 
ENDROOT
BRANCH   3  12
ATOM      7  C11 9FG A1001      26.723   4.840   3.587  0.00  0.00    +0.000 A 
ATOM      8  C10 9FG A1001      26.259   6.088   3.985  0.00  0.00    +0.000 A 
ATOM      9  C9  9FG A1001      25.063   6.180   4.698  0.00  0.00    +0.000 A 
ATOM     10  C8  9FG A1001      24.336   5.026   5.002  0.00  0.00    +0.000 A 
ATOM     11  C7  9FG A1001      24.820   3.769   4.595  0.00  0.00    +0.000 A 
ATOM     12  C6  9FG A1001      26.025   3.652   3.873  0.00  0.00    +0.000 A 
ATOM     13  F1  9FG A1001      27.873   4.812   2.915  0.00  0.00    +0.000 F 
ATOM     14  O1  9FG A1001      24.572   7.391   5.109  0.00  0.00    +0.000 OA
ENDBRANCH   3  12
BRANCH   6  15
ATOM     15  C12 9FG A1001      28.812  -0.513   3.629  0.00  0.00    +0.000 C 
ATOM     16  N2  9FG A1001      29.647  -1.293   3.814  0.00  0.00    +0.000 NA
ENDBRANCH   6  15
TORSDOF 2
ENDMDL
MODEL 2
REMARK VINA RESULT:      -7.2      1.215      1.710
REMARK  Name = ligand_pdbs\9FG.pdb
REMARK  2 active torsions:
REMARK  status: ('A' for Active; 'I' for Inactive)
REMARK    1  A    between atoms: C12_1  and  C2_14
REMARK    2  A    between atoms: C5_10  and  C6_11
REMARK                            x       y       z     vdW  Elec       q    Type
REMARK                         _______ _______ _______ _____ _____    ______ ____
ROOT
ATOM      1  N1  9FG A1001      27.659   1.566   3.972  0.00  0.00    +0.000 N 
ATOM      2  C1  9FG A1001      28.619   2.081   4.937  0.00  0.00    +0.000 C 
ATOM      3  C5  9FG A1001      26.506   2.203   3.500  0.00  0.00    +0.000 A 
ATOM      4  C4  9FG A1001      25.922   1.309   2.608  0.00  0.00    +0.000 A 
ATOM      5  C3  9FG A1001      26.726   0.150   2.526  0.00  0.00    +0.000 A 
ATOM      6  C2  9FG A1001      27.790   0.328   3.378  0.00  0.00    +0.000 A 
ENDROOT
BRANCH   3  12
ATOM      7  C11 9FG A1001      24.862   3.706   4.716  0.00  0.00    +0.000 A 
ATOM      8  C10 9FG A1001      24.396   4.965   5.079  0.00  0.00    +0.000 A 
ATOM      9  C9  9FG A1001      25.071   6.101   4.631  0.00  0.00    +0.000 A 
ATOM     10  C8  9FG A1001      26.209   5.972   3.830  0.00  0.00    +0.000 A 
ATOM     11  C7  9FG A1001      26.667   4.692   3.468  0.00  0.00    +0.000 A 
ATOM     12  C6  9FG A1001      26.003   3.530   3.911  0.00  0.00    +0.000 A 
ATOM     13  F1  9FG A1001      24.176   2.658   5.168  0.00  0.00    +0.000 F 
ATOM     14  O1  9FG A1001      24.643   7.359   4.965  0.00  0.00    +0.000 OA
ENDBRANCH   3  12
BRANCH   6  15
ATOM     15  C12 9FG A1001      28.855  -0.588   3.625  0.00  0.00    +0.000 C 
ATOM     16  N2  9FG A1001      29.723  -1.317   3.862  0.00  0.00    +0.000 NA
ENDBRANCH   6  15
TORSDOF 2
ENDMDL
MODEL 3
REMARK VINA RESULT:      -7.1      3.520      6.034
REMARK  Name = ligand_pdbs\9FG.pdb
REMARK  2 active torsions:
REMARK  status: ('A' for Active; 'I' for Inactive)
REMARK    1  A    between atoms: C12_1  and  C2_14
REMARK    2  A    between atoms: C5_10  and  C6_11
REMARK                            x       y       z     vdW  Elec       q    Type
REMARK                         _______ _______ _______ _____ _____    ______ ____
ROOT
ATOM      1  N1  9FG A1001      25.696   5.391   4.968  0.00  0.00    +0.000 N 
ATOM      2  C1  9FG A1001      24.282   5.069   5.093  0.00  0.00    +0.000 C 
ATOM      3  C5  9FG A1001      26.739   4.519   4.641  0.00  0.00    +0.000 A 
ATOM      4  C4  9FG A1001      27.895   5.293   4.657  0.00  0.00    +0.000 A 
ATOM      5  C3  9FG A1001      27.551   6.626   4.972  0.00  0.00    +0.000 A 
ATOM      6  C2  9FG A1001      26.190   6.664   5.164  0.00  0.00    +0.000 A 
ENDROOT
BRANCH   3  12
ATOM      7  C11 9FG A1001      26.928   2.087   5.344  0.00  0.00    +0.000 A 
ATOM      8  C10 9FG A1001      26.829   0.727   5.075  0.00  0.00    +0.000 A 
ATOM      9  C9  9FG A1001      26.420   0.306   3.809  0.00  0.00    +0.000 A 
ATOM     10  C8  9FG A1001      26.107   1.247   2.823  0.00  0.00    +0.000 A 
ATOM     11  C7  9FG A1001      26.215   2.621   3.109  0.00  0.00    +0.000 A 
ATOM     12  C6  9FG A1001      26.624   3.068   4.381  0.00  0.00    +0.000 A 
ATOM     13  F1  9FG A1001      27.328   2.430   6.568  0.00  0.00    +0.000 F 
ATOM     14  O1  9FG A1001      26.310  -1.024   3.503  0.00  0.00    +0.000 OA
ENDBRANCH   3  12
BRANCH   6  15
ATOM     15  C12 9FG A1001      25.402   7.803   5.505  0.00  0.00    +0.000 C 
ATOM     16  N2  9FG A1001      24.785   8.734   5.813  0.00  0.00    +0.000 NA
ENDBRANCH   6  15
TORSDOF 2
ENDMDL
MODEL 4
REMARK VINA RESULT:      -7.1      1.953      2.753
REMARK  Name = ligand_pdbs\9FG.pdb
REMARK  2 active torsions:
REMARK  status: ('A' for Active; 'I' for Inactive)
REMARK    1  A    between atoms: C12_1  and  C2_14
REMARK    2  A    between atoms: C5_10  and  C6_11
REMARK                            x       y       z     vdW  Elec       q    Type
REMARK                         _______ _______ _______ _____ _____    ______ ____
ROOT
ATOM      1  N1  9FG A1001      26.702   0.851   4.678  0.00  0.00    +0.000 N 
ATOM      2  C1  9FG A1001      25.600   0.606   3.759  0.00  0.00    +0.000 C 
ATOM      3  C5  9FG A1001      27.154   2.088   5.150  0.00  0.00    +0.000 A 
ATOM      4  C4  9FG A1001      28.227   1.800   5.989  0.00  0.00    +0.000 A 
ATOM      5  C3  9FG A1001      28.408   0.400   6.039  0.00  0.00    +0.000 A 
ATOM      6  C2  9FG A1001      27.460  -0.166   5.221  0.00  0.00    +0.000 A 
ENDROOT
BRANCH   3  12
ATOM      7  C11 9FG A1001      25.499   3.995   5.408  0.00  0.00    +0.000 A 
ATOM      8  C10 9FG A1001      25.005   5.241   5.038  0.00  0.00    +0.000 A 
ATOM      9  C9  9FG A1001      25.631   5.951   4.014  0.00  0.00    +0.000 A 
ATOM     10  C8  9FG A1001      26.750   5.415   3.370  0.00  0.00    +0.000 A 
ATOM     11  C7  9FG A1001      27.238   4.152   3.752  0.00  0.00    +0.000 A 
ATOM     12  C6  9FG A1001      26.622   3.418   4.785  0.00  0.00    +0.000 A 
ATOM     13  F1  9FG A1001      24.858   3.360   6.388  0.00  0.00    +0.000 F 
ATOM     14  O1  9FG A1001      25.175   7.181   3.620  0.00  0.00    +0.000 OA
ENDBRANCH   3  12
BRANCH   6  15
ATOM     15  C12 9FG A1001      27.269  -1.555   4.960  0.00  0.00    +0.000 C 
ATOM     16  N2  9FG A1001      27.082  -2.675   4.728  0.00  0.00    +0.000 NA
ENDBRANCH   6  15
TORSDOF 2
ENDMDL
MODEL 5
REMARK VINA RESULT:      -7.0      1.253      2.056
REMARK  Name = ligand_pdbs\9FG.pdb
REMARK  2 active torsions:
REMARK  status: ('A' for Active; 'I' for Inactive)
REMARK    1  A    between atoms: C12_1  and  C2_14
REMARK    2  A    between atoms: C5_10  and  C6_11
REMARK                            x       y       z     vdW  Elec       q    Type
REMARK                         _______ _______ _______ _____ _____    ______ ____
ROOT
ATOM      1  N1  9FG A1001      27.624   0.638   4.247  0.00  0.00    +0.000 N 
ATOM      2  C1  9FG A1001      26.999   0.470   2.943  0.00  0.00    +0.000 C 
ATOM      3  C5  9FG A1001      27.448   1.700   5.140  0.00  0.00    +0.000 A 
ATOM      4  C4  9FG A1001      28.259   1.409   6.233  0.00  0.00    +0.000 A 
ATOM      5  C3  9FG A1001      28.905   0.173   6.010  0.00  0.00    +0.000 A 
ATOM      6  C2  9FG A1001      28.502  -0.284   4.778  0.00  0.00    +0.000 A 
ENDROOT
BRANCH   3  12
ATOM      7  C11 9FG A1001      26.928   3.912   4.010  0.00  0.00    +0.000 A 
ATOM      8  C10 9FG A1001      26.131   5.038   3.839  0.00  0.00    +0.000 A 
ATOM      9  C9  9FG A1001      24.973   5.182   4.603  0.00  0.00    +0.000 A 
ATOM     10  C8  9FG A1001      24.616   4.197   5.529  0.00  0.00    +0.000 A 
ATOM     11  C7  9FG A1001      25.433   3.063   5.693  0.00  0.00    +0.000 A 
ATOM     12  C6  9FG A1001      26.607   2.897   4.931  0.00  0.00    +0.000 A 
ATOM     13  F1  9FG A1001      28.024   3.831   3.257  0.00  0.00    +0.000 F 
ATOM     14  O1  9FG A1001      24.161   6.277   4.466  0.00  0.00    +0.000 OA
ENDBRANCH   3  12
BRANCH   6  15
ATOM     15  C12 9FG A1001      28.904  -1.493   4.135  0.00  0.00    +0.000 C 
ATOM     16  N2  9FG A1001      29.224  -2.493   3.647  0.00  0.00    +0.000 NA
ENDBRANCH   6  15
TORSDOF 2
ENDMDL
MODEL 6
REMARK VINA RESULT:      -7.0      3.413      5.844
REMARK  Name = ligand_pdbs\9FG.pdb
REMARK  2 active torsions:
REMARK  status: ('A' for Active; 'I' for Inactive)
REMARK    1  A    between atoms: C12_1  and  C2_14
REMARK    2  A    between atoms: C5_10  and  C6_11
REMARK                            x       y       z     vdW  Elec       q    Type
REMARK                         _______ _______ _______ _____ _____    ______ ____
ROOT
ATOM      1  N1  9FG A1001      26.191   4.760   4.695  0.00  0.00    +0.000 N 
ATOM      2  C1  9FG A1001      27.594   5.147   4.673  0.00  0.00    +0.000 C 
ATOM      3  C5  9FG A1001      25.664   3.472   4.550  0.00  0.00    +0.000 A 
ATOM      4  C4  9FG A1001      24.283   3.620   4.633  0.00  0.00    +0.000 A 
ATOM      5  C3  9FG A1001      23.979   4.983   4.846  0.00  0.00    +0.000 A 
ATOM      6  C2  9FG A1001      25.170   5.669   4.878  0.00  0.00    +0.000 A 
ENDROOT
BRANCH   3  12
ATOM      7  C11 9FG A1001      27.264   1.642   5.279  0.00  0.00    +0.000 A 
ATOM      8  C10 9FG A1001      27.987   0.481   5.028  0.00  0.00    +0.000 A 
ATOM      9  C9  9FG A1001      27.893  -0.130   3.777  0.00  0.00    +0.000 A 
ATOM     10  C8  9FG A1001      27.073   0.420   2.787  0.00  0.00    +0.000 A 
ATOM     11  C7  9FG A1001      26.350   1.597   3.054  0.00  0.00    +0.000 A 
ATOM     12  C6  9FG A1001      26.428   2.230   4.311  0.00  0.00    +0.000 A 
ATOM     13  F1  9FG A1001      27.397   2.183   6.488  0.00  0.00    +0.000 F 
ATOM     14  O1  9FG A1001      28.590  -1.274   3.490  0.00  0.00    +0.000 OA
ENDBRANCH   3  12
BRANCH   6  15
ATOM     15  C12 9FG A1001      25.349   7.072   5.064  0.00  0.00    +0.000 C 
ATOM     16  N2  9FG A1001      25.517   8.203   5.245  0.00  0.00    +0.000 NA
ENDBRANCH   6  15
TORSDOF 2
ENDMDL
MODEL 7
REMARK VINA RESULT:      -6.9      3.411      5.784
REMARK  Name = ligand_pdbs\9FG.pdb
REMARK  2 active torsions:
REMARK  status: ('A' for Active; 'I' for Inactive)
REMARK    1  A    between atoms: C12_1  and  C2_14
REMARK    2  A    between atoms: C5_10  and  C6_11
REMARK                            x       y       z     vdW  Elec       q    Type
REMARK                         _______ _______ _______ _____ _____    ______ ____
ROOT
ATOM      1  N1  9FG A1001      26.065   4.392   4.571  0.00  0.00    +0.000 N 
ATOM      2  C1  9FG A1001      27.494   4.667   4.514  0.00  0.00    +0.000 C 
ATOM      3  C5  9FG A1001      25.436   3.148   4.458  0.00  0.00    +0.000 A 
ATOM      4  C4  9FG A1001      24.073   3.406   4.566  0.00  0.00    +0.000 A 
ATOM      5  C3  9FG A1001      23.882   4.792   4.763  0.00  0.00    +0.000 A 
ATOM      6  C2  9FG A1001      25.123   5.382   4.759  0.00  0.00    +0.000 A 
ENDROOT
BRANCH   3  12
ATOM      7  C11 9FG A1001      26.193   1.250   2.952  0.00  0.00    +0.000 A 
ATOM      8  C10 9FG A1001      26.803   0.017   2.756  0.00  0.00    +0.000 A 
ATOM      9  C9  9FG A1001      27.337  -0.667   3.849  0.00  0.00    +0.000 A 
ATOM     10  C8  9FG A1001      27.261  -0.111   5.129  0.00  0.00    +0.000 A 
ATOM     11  C7  9FG A1001      26.638   1.137   5.313  0.00  0.00    +0.000 A 
ATOM     12  C6  9FG A1001      26.094   1.846   4.224  0.00  0.00    +0.000 A 
ATOM     13  F1  9FG A1001      25.698   1.854   1.873  0.00  0.00    +0.000 F 
ATOM     14  O1  9FG A1001      27.945  -1.885   3.698  0.00  0.00    +0.000 OA
ENDBRANCH   3  12
BRANCH   6  15
ATOM     15  C12 9FG A1001      25.416   6.769   4.919  0.00  0.00    +0.000 C 
ATOM     16  N2  9FG A1001      25.665   7.888   5.084  0.00  0.00    +0.000 NA
ENDBRANCH   6  15
TORSDOF 2
ENDMDL
MODEL 8
REMARK VINA RESULT:      -6.8      3.721      6.081
REMARK  Name = ligand_pdbs\9FG.pdb
REMARK  2 active torsions:
REMARK  status: ('A' for Active; 'I' for Inactive)
REMARK    1  A    between atoms: C12_1  and  C2_14
REMARK    2  A    between atoms: C5_10  and  C6_11
REMARK                            x       y       z     vdW  Elec       q    Type
REMARK                         _______ _______ _______ _____ _____    ______ ____
ROOT
ATOM      1  N1  9FG A1001      27.840   3.304   4.612  0.00  0.00    +0.000 N 
ATOM      2  C1  9FG A1001      28.970   3.263   5.529  0.00  0.00    +0.000 C 
ATOM      3  C5  9FG A1001      27.306   2.240   3.877  0.00  0.00    +0.000 A 
ATOM      4  C4  9FG A1001      26.250   2.780   3.149  0.00  0.00    +0.000 A 
ATOM      5  C3  9FG A1001      26.135   4.153   3.456  0.00  0.00    +0.000 A 
ATOM      6  C2  9FG A1001      27.127   4.457   4.358  0.00  0.00    +0.000 A 
ENDROOT
BRANCH   3  12
ATOM      7  C11 9FG A1001      27.130  -0.220   4.478  0.00  0.00    +0.000 A 
ATOM      8  C10 9FG A1001      27.622  -1.520   4.458  0.00  0.00    +0.000 A 
ATOM      9  C9  9FG A1001      28.826  -1.788   3.806  0.00  0.00    +0.000 A 
ATOM     10  C8  9FG A1001      29.527  -0.757   3.174  0.00  0.00    +0.000 A 
ATOM     11  C7  9FG A1001      29.018   0.555   3.204  0.00  0.00    +0.000 A 
ATOM     12  C6  9FG A1001      27.803   0.848   3.855  0.00  0.00    +0.000 A 
ATOM     13  F1  9FG A1001      25.979  -0.023   5.119  0.00  0.00    +0.000 F 
ATOM     14  O1  9FG A1001      29.346  -3.054   3.765  0.00  0.00    +0.000 OA
ENDBRANCH   3  12
BRANCH   6  15
ATOM     15  C12 9FG A1001      27.397   5.729   4.944  0.00  0.00    +0.000 C 
ATOM     16  N2  9FG A1001      27.610   6.779   5.385  0.00  0.00    +0.000 NA
ENDBRANCH   6  15
TORSDOF 2
ENDMDL
MODEL 9
REMARK VINA RESULT:      -6.7      3.742      6.190
REMARK  Name = ligand_pdbs\9FG.pdb
REMARK  2 active torsions:
REMARK  status: ('A' for Active; 'I' for Inactive)
REMARK    1  A    between atoms: C12_1  and  C2_14
REMARK    2  A    between atoms: C5_10  and  C6_11
REMARK                            x       y       z     vdW  Elec       q    Type
REMARK                         _______ _______ _______ _____ _____    ______ ____
ROOT
ATOM      1  N1  9FG A1001      25.608   2.163   4.504  0.00  0.00    +0.000 N 
ATOM      2  C1  9FG A1001      24.869   1.581   3.392  0.00  0.00    +0.000 C 
ATOM      3  C5  9FG A1001      26.797   1.691   5.071  0.00  0.00    +0.000 A 
ATOM      4  C4  9FG A1001      27.098   2.576   6.101  0.00  0.00    +0.000 A 
ATOM      5  C3  9FG A1001      26.110   3.585   6.143  0.00  0.00    +0.000 A 
ATOM      6  C2  9FG A1001      25.199   3.309   5.152  0.00  0.00    +0.000 A 
ENDROOT
BRANCH   3  12
ATOM      7  C11 9FG A1001      28.756   0.513   3.967  0.00  0.00    +0.000 A 
ATOM      8  C10 9FG A1001      29.431  -0.642   3.591  0.00  0.00    +0.000 A 
ATOM      9  C9  9FG A1001      28.893  -1.888   3.916  0.00  0.00    +0.000 A 
ATOM     10  C8  9FG A1001      27.688  -1.971   4.620  0.00  0.00    +0.000 A 
ATOM     11  C7  9FG A1001      27.014  -0.793   4.992  0.00  0.00    +0.000 A 
ATOM     12  C6  9FG A1001      27.540   0.476   4.675  0.00  0.00    +0.000 A 
ATOM     13  F1  9FG A1001      29.313   1.674   3.625  0.00  0.00    +0.000 F 
ATOM     14  O1  9FG A1001      29.527  -3.050   3.563  0.00  0.00    +0.000 OA
ENDBRANCH   3  12
BRANCH   6  15
ATOM     15  C12 9FG A1001      24.028   4.057   4.828  0.00  0.00    +0.000 C 
ATOM     16  N2  9FG A1001      23.056   4.636   4.581  0.00  0.00    +0.000 NA
ENDBRANCH   6  15
TORSDOF 2
ENDMDL
