MODEL 1
REMARK VINA RESULT:      -2.5      0.000      0.000
REMARK  Name = ligand_pdbs\ACE.pdb
REMARK  0 active torsions:
REMARK  status: ('A' for Active; 'I' for Inactive)
REMARK                            x       y       z     vdW  Elec       q    Type
REMARK                         _______ _______ _______ _____ _____    ______ ____
ROOT
ATOM      1  C   ACE C   0      23.015  11.008  11.025  0.00  0.00    +0.000 C 
ATOM      2  O   ACE C   0      23.747  10.111  10.504  0.00  0.00    +0.000 OA
ATOM      3  CH3 ACE C   0      22.996  11.148  12.510  0.00  0.00    +0.000 C 
ENDROOT
TORSDOF 0
ENDMDL
MODEL 2
REMARK VINA RESULT:      -2.0      8.753      8.872
REMARK  Name = ligand_pdbs\ACE.pdb
REMARK  0 active torsions:
REMARK  status: ('A' for Active; 'I' for Inactive)
REMARK                            x       y       z     vdW  Elec       q    Type
REMARK                         _______ _______ _______ _____ _____    ______ ____
ROOT
ATOM      1  C   ACE C   0      24.106   5.028   4.859  0.00  0.00    +0.000 C 
ATOM      2  O   ACE C   0      23.035   4.515   4.407  0.00  0.00    +0.000 OA
ATOM      3  CH3 ACE C   0      24.542   6.355   4.337  0.00  0.00    +0.000 C 
ENDROOT
TORSDOF 0
ENDMDL
MODEL 3
REMARK VINA RESULT:      -2.0      8.399      8.696
REMARK  Name = ligand_pdbs\ACE.pdb
REMARK  0 active torsions:
REMARK  status: ('A' for Active; 'I' for Inactive)
REMARK                            x       y       z     vdW  Elec       q    Type
REMARK                         _______ _______ _______ _____ _____    ______ ____
ROOT
ATOM      1  C   ACE C   0      24.456   5.491   4.883  0.00  0.00    +0.000 C 
ATOM      2  O   ACE C   0      24.398   6.676   4.431  0.00  0.00    +0.000 OA
ATOM      3  CH3 ACE C   0      23.367   4.533   4.533  0.00  0.00    +0.000 C 
ENDROOT
TORSDOF 0
ENDMDL
MODEL 4
REMARK VINA RESULT:      -1.9      9.507      9.802
REMARK  Name = ligand_pdbs\ACE.pdb
REMARK  0 active torsions:
REMARK  status: ('A' for Active; 'I' for Inactive)
REMARK                            x       y       z     vdW  Elec       q    Type
REMARK                         _______ _______ _______ _____ _____    ______ ____
ROOT
ATOM      1  C   ACE C   0      27.707   5.364   4.574  0.00  0.00    +0.000 C 
ATOM      2  O   ACE C   0      27.594   6.521   5.086  0.00  0.00    +0.000 OA
ATOM      3  CH3 ACE C   0      26.867   5.018   3.390  0.00  0.00    +0.000 C 
ENDROOT
TORSDOF 0
ENDMDL
MODEL 5
REMARK VINA RESULT:      -1.9      7.244      7.705
REMARK  Name = ligand_pdbs\ACE.pdb
REMARK  0 active torsions:
REMARK  status: ('A' for Active; 'I' for Inactive)
REMARK                            x       y       z     vdW  Elec       q    Type
REMARK                         _______ _______ _______ _____ _____    ______ ____
ROOT
ATOM      1  C   ACE C   0      25.873   7.572   5.134  0.00  0.00    +0.000 C 
ATOM      2  O   ACE C   0      25.214   8.447   5.778  0.00  0.00    +0.000 OA
ATOM      3  CH3 ACE C   0      25.238   6.921   3.951  0.00  0.00    +0.000 C 
ENDROOT
TORSDOF 0
ENDMDL
MODEL 6
REMARK VINA RESULT:      -1.9      8.785      8.929
REMARK  Name = ligand_pdbs\ACE.pdb
REMARK  0 active torsions:
REMARK  status: ('A' for Active; 'I' for Inactive)
REMARK                            x       y       z     vdW  Elec       q    Type
REMARK                         _______ _______ _______ _____ _____    ______ ____
ROOT
ATOM      1  C   ACE C   0      24.504   4.259   5.575  0.00  0.00    +0.000 C 
ATOM      2  O   ACE C   0      25.643   4.820   5.535  0.00  0.00    +0.000 OA
ATOM      3  CH3 ACE C   0      23.473   4.653   4.571  0.00  0.00    +0.000 C 
ENDROOT
TORSDOF 0
ENDMDL
MODEL 7
REMARK VINA RESULT:      -1.9      9.373      9.744
REMARK  Name = ligand_pdbs\ACE.pdb
REMARK  0 active torsions:
REMARK  status: ('A' for Active; 'I' for Inactive)
REMARK                            x       y       z     vdW  Elec       q    Type
REMARK                         _______ _______ _______ _____ _____    ______ ____
ROOT
ATOM      1  C   ACE C   0      27.782   5.349   4.326  0.00  0.00    +0.000 C 
ATOM      2  O   ACE C   0      27.182   5.059   3.245  0.00  0.00    +0.000 OA
ATOM      3  CH3 ACE C   0      27.353   6.561   5.083  0.00  0.00    +0.000 C 
ENDROOT
TORSDOF 0
ENDMDL
MODEL 8
REMARK VINA RESULT:      -1.8      7.729      7.997
REMARK  Name = ligand_pdbs\ACE.pdb
REMARK  0 active torsions:
REMARK  status: ('A' for Active; 'I' for Inactive)
REMARK                            x       y       z     vdW  Elec       q    Type
REMARK                         _______ _______ _______ _____ _____    ______ ____
ROOT
ATOM      1  C   ACE C   0      25.357   6.289   4.891  0.00  0.00    +0.000 C 
ATOM      2  O   ACE C   0      24.179   6.009   4.506  0.00  0.00    +0.000 OA
ATOM      3  CH3 ACE C   0      25.711   7.717   5.140  0.00  0.00    +0.000 C 
ENDROOT
TORSDOF 0
ENDMDL
MODEL 9
REMARK VINA RESULT:      -1.7     13.622     13.903
REMARK  Name = ligand_pdbs\ACE.pdb
REMARK  0 active torsions:
REMARK  status: ('A' for Active; 'I' for Inactive)
REMARK                            x       y       z     vdW  Elec       q    Type
REMARK                         _______ _______ _______ _____ _____    ______ ____
ROOT
ATOM      1  C   ACE C   0      27.810  -0.503   5.256  0.00  0.00    +0.000 C 
ATOM      2  O   ACE C   0      28.751  -0.383   6.101  0.00  0.00    +0.000 OA
ATOM      3  CH3 ACE C   0      27.035  -1.778   5.221  0.00  0.00    +0.000 C 
ENDROOT
TORSDOF 0
ENDMDL
