MODEL 1
REMARK VINA RESULT:      -3.0      0.000      0.000
REMARK  Name = ligand_pdbs\ACT.pdb
REMARK  0 active torsions:
REMARK  status: ('A' for Active; 'I' for Inactive)
REMARK                            x       y       z     vdW  Elec       q    Type
REMARK                         _______ _______ _______ _____ _____    ______ ____
ROOT
ATOM      1  C   ACT D1006      23.106  11.208  11.001  0.00  0.00    +0.000 C 
ATOM      2  O   ACT D1006      22.720  12.231  10.363  0.00  0.00    +0.000 OA
ATOM      3  OXT ACT D1006      23.606  10.231  10.400  0.00  0.00    +0.000 OA
ATOM      4  CH3 ACT D1006      22.981  11.139  12.506  0.00  0.00    +0.000 C 
ENDROOT
TORSDOF 0
ENDMDL
MODEL 2
REMARK VINA RESULT:      -2.9      1.589      2.034
REMARK  Name = ligand_pdbs\ACT.pdb
REMARK  0 active torsions:
REMARK  status: ('A' for Active; 'I' for Inactive)
REMARK                            x       y       z     vdW  Elec       q    Type
REMARK                         _______ _______ _______ _____ _____    ______ ____
ROOT
ATOM      1  C   ACT D1006      23.565  12.356  11.778  0.00  0.00    +0.000 C 
ATOM      2  O   ACT D1006      24.630  12.901  12.193  0.00  0.00    +0.000 OA
ATOM      3  OXT ACT D1006      22.991  12.776  10.749  0.00  0.00    +0.000 OA
ATOM      4  CH3 ACT D1006      22.959  11.180  12.510  0.00  0.00    +0.000 C 
ENDROOT
TORSDOF 0
ENDMDL
MODEL 3
REMARK VINA RESULT:      -2.6      8.793      9.093
REMARK  Name = ligand_pdbs\ACT.pdb
REMARK  0 active torsions:
REMARK  status: ('A' for Active; 'I' for Inactive)
REMARK                            x       y       z     vdW  Elec       q    Type
REMARK                         _______ _______ _______ _____ _____    ______ ____
ROOT
ATOM      1  C   ACT D1006      23.908   4.830   4.895  0.00  0.00    +0.000 C 
ATOM      2  O   ACT D1006      24.451   4.203   5.852  0.00  0.00    +0.000 OA
ATOM      3  OXT ACT D1006      22.886   4.378   4.333  0.00  0.00    +0.000 OA
ATOM      4  CH3 ACT D1006      24.475   6.144   4.408  0.00  0.00    +0.000 C 
ENDROOT
TORSDOF 0
ENDMDL
MODEL 4
REMARK VINA RESULT:      -2.4      8.413      8.714
REMARK  Name = ligand_pdbs\ACT.pdb
REMARK  0 active torsions:
REMARK  status: ('A' for Active; 'I' for Inactive)
REMARK                            x       y       z     vdW  Elec       q    Type
REMARK                         _______ _______ _______ _____ _____    ______ ____
ROOT
ATOM      1  C   ACT D1006      24.472   5.497   4.803  0.00  0.00    +0.000 C 
ATOM      2  O   ACT D1006      24.375   6.707   4.442  0.00  0.00    +0.000 OA
ATOM      3  OXT ACT D1006      25.500   5.083   5.384  0.00  0.00    +0.000 OA
ATOM      4  CH3 ACT D1006      23.347   4.519   4.549  0.00  0.00    +0.000 C 
ENDROOT
TORSDOF 0
ENDMDL
MODEL 5
REMARK VINA RESULT:      -2.4      7.200      7.966
REMARK  Name = ligand_pdbs\ACT.pdb
REMARK  0 active torsions:
REMARK  status: ('A' for Active; 'I' for Inactive)
REMARK                            x       y       z     vdW  Elec       q    Type
REMARK                         _______ _______ _______ _____ _____    ______ ____
ROOT
ATOM      1  C   ACT D1006      25.914   7.479   5.035  0.00  0.00    +0.000 C 
ATOM      2  O   ACT D1006      27.117   7.147   5.249  0.00  0.00    +0.000 OA
ATOM      3  OXT ACT D1006      25.357   8.352   5.737  0.00  0.00    +0.000 OA
ATOM      4  CH3 ACT D1006      25.117   6.835   3.922  0.00  0.00    +0.000 C 
ENDROOT
TORSDOF 0
ENDMDL
MODEL 6
REMARK VINA RESULT:      -2.4      9.246      9.792
REMARK  Name = ligand_pdbs\ACT.pdb
REMARK  0 active torsions:
REMARK  status: ('A' for Active; 'I' for Inactive)
REMARK                            x       y       z     vdW  Elec       q    Type
REMARK                         _______ _______ _______ _____ _____    ______ ____
ROOT
ATOM      1  C   ACT D1006      27.566   5.431   4.847  0.00  0.00    +0.000 C 
ATOM      2  O   ACT D1006      27.598   6.663   5.134  0.00  0.00    +0.000 OA
ATOM      3  OXT ACT D1006      27.735   4.563   5.732  0.00  0.00    +0.000 OA
ATOM      4  CH3 ACT D1006      27.317   4.971   3.428  0.00  0.00    +0.000 C 
ENDROOT
TORSDOF 0
ENDMDL
MODEL 7
REMARK VINA RESULT:      -2.4      1.916      1.921
REMARK  Name = ligand_pdbs\ACT.pdb
REMARK  0 active torsions:
REMARK  status: ('A' for Active; 'I' for Inactive)
REMARK                            x       y       z     vdW  Elec       q    Type
REMARK                         _______ _______ _______ _____ _____    ______ ____
ROOT
ATOM      1  C   ACT D1006      23.692  11.978  10.228  0.00  0.00    +0.000 C 
ATOM      2  O   ACT D1006      22.615  12.642  10.211  0.00  0.00    +0.000 OA
ATOM      3  OXT ACT D1006      24.801  12.556  10.259  0.00  0.00    +0.000 OA
ATOM      4  CH3 ACT D1006      23.671  10.465  10.217  0.00  0.00    +0.000 C 
ENDROOT
TORSDOF 0
ENDMDL
MODEL 8
REMARK VINA RESULT:      -2.3     15.635     16.091
REMARK  Name = ligand_pdbs\ACT.pdb
REMARK  0 active torsions:
REMARK  status: ('A' for Active; 'I' for Inactive)
REMARK                            x       y       z     vdW  Elec       q    Type
REMARK                         _______ _______ _______ _____ _____    ______ ____
ROOT
ATOM      1  C   ACT D1006      28.230  -2.035   3.623  0.00  0.00    +0.000 C 
ATOM      2  O   ACT D1006      29.368  -2.591   3.637  0.00  0.00    +0.000 OA
ATOM      3  OXT ACT D1006      27.968  -1.135   2.795  0.00  0.00    +0.000 OA
ATOM      4  CH3 ACT D1006      27.154  -2.447   4.602  0.00  0.00    +0.000 C 
ENDROOT
TORSDOF 0
ENDMDL
MODEL 9
REMARK VINA RESULT:      -2.3      8.651      9.197
REMARK  Name = ligand_pdbs\ACT.pdb
REMARK  0 active torsions:
REMARK  status: ('A' for Active; 'I' for Inactive)
REMARK                            x       y       z     vdW  Elec       q    Type
REMARK                         _______ _______ _______ _____ _____    ______ ____
ROOT
ATOM      1  C   ACT D1006      27.077   5.728   4.980  0.00  0.00    +0.000 C 
ATOM      2  O   ACT D1006      26.546   4.817   5.680  0.00  0.00    +0.000 OA
ATOM      3  OXT ACT D1006      27.995   5.462   4.173  0.00  0.00    +0.000 OA
ATOM      4  CH3 ACT D1006      26.613   7.163   5.092  0.00  0.00    +0.000 C 
ENDROOT
TORSDOF 0
ENDMDL
