MODEL 1
REMARK VINA RESULT:      -7.6      0.000      0.000
REMARK  Name = ligand_pdbs\ADN.pdb
REMARK  2 active torsions:
REMARK  status: ('A' for Active; 'I' for Inactive)
REMARK    1  A    between atoms: C5'_2  and  C4'_3
REMARK    2  A    between atoms: C1'_9  and  N9_10
REMARK                            x       y       z     vdW  Elec       q    Type
REMARK                         _______ _______ _______ _____ _____    ______ ____
ROOT
ATOM      1  N9  ADN A 701      26.968   2.983   5.302  0.00  0.00    +0.000 N 
ATOM      2  C8  ADN A 701      27.879   3.994   5.446  0.00  0.00    +0.000 C 
ATOM      3  N7  ADN A 701      27.374   5.197   5.311  0.00  0.00    +0.000 NA
ATOM      4  C5  ADN A 701      26.027   4.963   5.076  0.00  0.00    +0.000 C 
ATOM      5  C6  ADN A 701      24.945   5.829   4.820  0.00  0.00    +0.000 C 
ATOM      6  N6  ADN A 701      25.027   7.166   4.904  0.00  0.00    +0.000 NA
ATOM      7  N1  ADN A 701      23.735   5.275   4.569  0.00  0.00    +0.000 NA
ATOM      8  C2  ADN A 701      23.617   3.942   4.629  0.00  0.00    +0.000 C 
ATOM      9  N3  ADN A 701      24.562   3.029   4.878  0.00  0.00    +0.000 NA
ATOM     10  C4  ADN A 701      25.757   3.604   5.081  0.00  0.00    +0.000 C 
ENDROOT
BRANCH   1  17
ATOM     11  C4' ADN A 701      29.009   0.242   6.240  0.00  0.00    +0.000 C 
ATOM     12  O4' ADN A 701      28.129   1.369   6.480  0.00  0.00    +0.000 OA
ATOM     13  C3' ADN A 701      28.756  -0.203   4.811  0.00  0.00    +0.000 C 
ATOM     14  O3' ADN A 701      27.944  -1.364   4.861  0.00  0.00    +0.000 OA
ATOM     15  C2' ADN A 701      28.056   1.014   4.187  0.00  0.00    +0.000 C 
ATOM     16  O2' ADN A 701      27.304   0.608   3.047  0.00  0.00    +0.000 OA
ATOM     17  C1' ADN A 701      27.266   1.555   5.376  0.00  0.00    +0.000 C 
BRANCH  11  19
ATOM     18  O5' ADN A 701      30.860   1.888   6.107  0.00  0.00    +0.000 OA
ATOM     19  C5' ADN A 701      30.446   0.598   6.575  0.00  0.00    +0.000 C 
ENDBRANCH  11  19
ENDBRANCH   1  17
TORSDOF 2
ENDMDL
MODEL 2
REMARK VINA RESULT:      -7.1      0.988      1.991
REMARK  Name = ligand_pdbs\ADN.pdb
REMARK  2 active torsions:
REMARK  status: ('A' for Active; 'I' for Inactive)
REMARK    1  A    between atoms: C5'_2  and  C4'_3
REMARK    2  A    between atoms: C1'_9  and  N9_10
REMARK                            x       y       z     vdW  Elec       q    Type
REMARK                         _______ _______ _______ _____ _____    ______ ____
ROOT
ATOM      1  N9  ADN A 701      26.102   2.379   4.828  0.00  0.00    +0.000 N 
ATOM      2  C8  ADN A 701      24.734   2.405   4.768  0.00  0.00    +0.000 C 
ATOM      3  N7  ADN A 701      24.223   3.607   4.650  0.00  0.00    +0.000 NA
ATOM      4  C5  ADN A 701      25.336   4.435   4.614  0.00  0.00    +0.000 C 
ATOM      5  C6  ADN A 701      25.474   5.834   4.527  0.00  0.00    +0.000 C 
ATOM      6  N6  ADN A 701      24.447   6.670   4.308  0.00  0.00    +0.000 NA
ATOM      7  N1  ADN A 701      26.724   6.353   4.573  0.00  0.00    +0.000 NA
ATOM      8  C2  ADN A 701      27.764   5.510   4.644  0.00  0.00    +0.000 C 
ATOM      9  N3  ADN A 701      27.755   4.175   4.713  0.00  0.00    +0.000 NA
ATOM     10  C4  ADN A 701      26.503   3.693   4.708  0.00  0.00    +0.000 C 
ENDROOT
BRANCH   1  17
ATOM     11  C4' ADN A 701      28.950   0.656   6.044  0.00  0.00    +0.000 C 
ATOM     12  O4' ADN A 701      27.685   1.354   6.164  0.00  0.00    +0.000 OA
ATOM     13  C3' ADN A 701      29.020   0.136   4.620  0.00  0.00    +0.000 C 
ATOM     14  O3' ADN A 701      28.720  -1.249   4.654  0.00  0.00    +0.000 OA
ATOM     15  C2' ADN A 701      27.964   0.980   3.890  0.00  0.00    +0.000 C 
ATOM     16  O2' ADN A 701      27.534   0.304   2.711  0.00  0.00    +0.000 OA
ATOM     17  C1' ADN A 701      26.921   1.181   4.987  0.00  0.00    +0.000 C 
BRANCH  11  19
ATOM     18  O5' ADN A 701      30.624   2.385   5.441  0.00  0.00    +0.000 OA
ATOM     19  C5' ADN A 701      30.101   1.547   6.479  0.00  0.00    +0.000 C 
ENDBRANCH  11  19
ENDBRANCH   1  17
TORSDOF 2
ENDMDL
MODEL 3
REMARK VINA RESULT:      -7.0      3.137      6.179
REMARK  Name = ligand_pdbs\ADN.pdb
REMARK  2 active torsions:
REMARK  status: ('A' for Active; 'I' for Inactive)
REMARK    1  A    between atoms: C5'_2  and  C4'_3
REMARK    2  A    between atoms: C1'_9  and  N9_10
REMARK                            x       y       z     vdW  Elec       q    Type
REMARK                         _______ _______ _______ _____ _____    ______ ____
ROOT
ATOM      1  N9  ADN A 701      26.890   2.201   4.086  0.00  0.00    +0.000 N 
ATOM      2  C8  ADN A 701      26.135   1.659   3.081  0.00  0.00    +0.000 C 
ATOM      3  N7  ADN A 701      26.481   0.439   2.746  0.00  0.00    +0.000 NA
ATOM      4  C5  ADN A 701      27.532   0.148   3.603  0.00  0.00    +0.000 C 
ATOM      5  C6  ADN A 701      28.359  -0.985   3.739  0.00  0.00    +0.000 C 
ATOM      6  N6  ADN A 701      28.153  -2.137   3.083  0.00  0.00    +0.000 NA
ATOM      7  N1  ADN A 701      29.355  -0.937   4.654  0.00  0.00    +0.000 NA
ATOM      8  C2  ADN A 701      29.472   0.159   5.417  0.00  0.00    +0.000 C 
ATOM      9  N3  ADN A 701      28.740   1.279   5.389  0.00  0.00    +0.000 NA
ATOM     10  C4  ADN A 701      27.788   1.218   4.446  0.00  0.00    +0.000 C 
ENDROOT
BRANCH   1  17
ATOM     11  C4' ADN A 701      24.937   4.964   5.138  0.00  0.00    +0.000 C 
ATOM     12  O4' ADN A 701      25.455   3.612   5.220  0.00  0.00    +0.000 OA
ATOM     13  C3' ADN A 701      25.926   5.752   4.300  0.00  0.00    +0.000 C 
ATOM     14  O3' ADN A 701      26.709   6.537   5.185  0.00  0.00    +0.000 OA
ATOM     15  C2' ADN A 701      26.724   4.654   3.580  0.00  0.00    +0.000 C 
ATOM     16  O2' ADN A 701      27.989   5.165   3.168  0.00  0.00    +0.000 OA
ATOM     17  C1' ADN A 701      26.738   3.547   4.630  0.00  0.00    +0.000 C 
BRANCH  11  19
ATOM     18  O5' ADN A 701      23.005   3.669   4.275  0.00  0.00    +0.000 OA
ATOM     19  C5' ADN A 701      23.503   4.963   4.638  0.00  0.00    +0.000 C 
ENDBRANCH  11  19
ENDBRANCH   1  17
TORSDOF 2
ENDMDL
MODEL 4
REMARK VINA RESULT:      -7.0      1.354      3.020
REMARK  Name = ligand_pdbs\ADN.pdb
REMARK  2 active torsions:
REMARK  status: ('A' for Active; 'I' for Inactive)
REMARK    1  A    between atoms: C5'_2  and  C4'_3
REMARK    2  A    between atoms: C1'_9  and  N9_10
REMARK                            x       y       z     vdW  Elec       q    Type
REMARK                         _______ _______ _______ _____ _____    ______ ____
ROOT
ATOM      1  N9  ADN A 701      26.740   2.716   4.529  0.00  0.00    +0.000 N 
ATOM      2  C8  ADN A 701      25.411   2.449   4.337  0.00  0.00    +0.000 C 
ATOM      3  N7  ADN A 701      24.645   3.514   4.320  0.00  0.00    +0.000 NA
ATOM      4  C5  ADN A 701      25.536   4.562   4.498  0.00  0.00    +0.000 C 
ATOM      5  C6  ADN A 701      25.352   5.955   4.601  0.00  0.00    +0.000 C 
ATOM      6  N6  ADN A 701      24.177   6.567   4.387  0.00  0.00    +0.000 NA
ATOM      7  N1  ADN A 701      26.441   6.724   4.836  0.00  0.00    +0.000 NA
ATOM      8  C2  ADN A 701      27.641   6.129   4.905  0.00  0.00    +0.000 C 
ATOM      9  N3  ADN A 701      27.936   4.829   4.805  0.00  0.00    +0.000 NA
ATOM     10  C4  ADN A 701      26.833   4.090   4.615  0.00  0.00    +0.000 C 
ENDROOT
BRANCH   1  17
ATOM     11  C4' ADN A 701      27.904  -0.620   4.810  0.00  0.00    +0.000 C 
ATOM     12  O4' ADN A 701      27.265   0.499   4.144  0.00  0.00    +0.000 OA
ATOM     13  C3' ADN A 701      28.800  -0.026   5.881  0.00  0.00    +0.000 C 
ATOM     14  O3' ADN A 701      30.133  -0.072   5.399  0.00  0.00    +0.000 OA
ATOM     15  C2' ADN A 701      28.251   1.400   6.041  0.00  0.00    +0.000 C 
ATOM     16  O2' ADN A 701      29.254   2.245   6.602  0.00  0.00    +0.000 OA
ATOM     17  C1' ADN A 701      27.802   1.718   4.618  0.00  0.00    +0.000 C 
BRANCH  11  19
ATOM     18  O5' ADN A 701      26.914  -2.888   4.629  0.00  0.00    +0.000 OA
ATOM     19  C5' ADN A 701      26.870  -1.620   5.296  0.00  0.00    +0.000 C 
ENDBRANCH  11  19
ENDBRANCH   1  17
TORSDOF 2
ENDMDL
MODEL 5
REMARK VINA RESULT:      -7.0      3.048      5.701
REMARK  Name = ligand_pdbs\ADN.pdb
REMARK  2 active torsions:
REMARK  status: ('A' for Active; 'I' for Inactive)
REMARK    1  A    between atoms: C5'_2  and  C4'_3
REMARK    2  A    between atoms: C1'_9  and  N9_10
REMARK                            x       y       z     vdW  Elec       q    Type
REMARK                         _______ _______ _______ _____ _____    ______ ____
ROOT
ATOM      1  N9  ADN A 701      27.294   2.708   5.518  0.00  0.00    +0.000 N 
ATOM      2  C8  ADN A 701      28.137   2.123   6.425  0.00  0.00    +0.000 C 
ATOM      3  N7  ADN A 701      28.435   0.874   6.155  0.00  0.00    +0.000 NA
ATOM      4  C5  ADN A 701      27.752   0.621   4.975  0.00  0.00    +0.000 C 
ATOM      5  C6  ADN A 701      27.631  -0.535   4.178  0.00  0.00    +0.000 C 
ATOM      6  N6  ADN A 701      28.341  -1.656   4.383  0.00  0.00    +0.000 NA
ATOM      7  N1  ADN A 701      26.826  -0.476   3.092  0.00  0.00    +0.000 NA
ATOM      8  C2  ADN A 701      26.229   0.688   2.800  0.00  0.00    +0.000 C 
ATOM      9  N3  ADN A 701      26.284   1.846   3.467  0.00  0.00    +0.000 NA
ATOM     10  C4  ADN A 701      27.055   1.745   4.560  0.00  0.00    +0.000 C 
ENDROOT
BRANCH   1  17
ATOM     11  C4' ADN A 701      24.699   5.111   5.293  0.00  0.00    +0.000 C 
ATOM     12  O4' ADN A 701      25.402   3.984   5.875  0.00  0.00    +0.000 OA
ATOM     13  C3' ADN A 701      25.720   5.871   4.466  0.00  0.00    +0.000 C 
ATOM     14  O3' ADN A 701      26.109   7.014   5.209  0.00  0.00    +0.000 OA
ATOM     15  C2' ADN A 701      26.848   4.844   4.277  0.00  0.00    +0.000 C 
ATOM     16  O2' ADN A 701      28.070   5.516   3.985  0.00  0.00    +0.000 OA
ATOM     17  C1' ADN A 701      26.783   4.073   5.593  0.00  0.00    +0.000 C 
BRANCH  11  19
ATOM     18  O5' ADN A 701      23.411   3.237   4.302  0.00  0.00    +0.000 OA
ATOM     19  C5' ADN A 701      23.460   4.648   4.548  0.00  0.00    +0.000 C 
ENDBRANCH  11  19
ENDBRANCH   1  17
TORSDOF 2
ENDMDL
MODEL 6
REMARK VINA RESULT:      -6.9      3.018      5.734
REMARK  Name = ligand_pdbs\ADN.pdb
REMARK  2 active torsions:
REMARK  status: ('A' for Active; 'I' for Inactive)
REMARK    1  A    between atoms: C5'_2  and  C4'_3
REMARK    2  A    between atoms: C1'_9  and  N9_10
REMARK                            x       y       z     vdW  Elec       q    Type
REMARK                         _______ _______ _______ _____ _____    ______ ____
ROOT
ATOM      1  N9  ADN A 701      27.271   3.121   5.304  0.00  0.00    +0.000 N 
ATOM      2  C8  ADN A 701      28.320   3.821   5.839  0.00  0.00    +0.000 C 
ATOM      3  N7  ADN A 701      29.298   3.068   6.283  0.00  0.00    +0.000 NA
ATOM      4  C5  ADN A 701      28.871   1.778   6.005  0.00  0.00    +0.000 C 
ATOM      5  C6  ADN A 701      29.445   0.515   6.254  0.00  0.00    +0.000 C 
ATOM      6  N6  ADN A 701      30.689   0.345   6.729  0.00  0.00    +0.000 NA
ATOM      7  N1  ADN A 701      28.737  -0.584   5.905  0.00  0.00    +0.000 NA
ATOM      8  C2  ADN A 701      27.555  -0.417   5.295  0.00  0.00    +0.000 C 
ATOM      9  N3  ADN A 701      26.924   0.723   4.994  0.00  0.00    +0.000 NA
ATOM     10  C4  ADN A 701      27.630   1.793   5.389  0.00  0.00    +0.000 C 
ENDROOT
BRANCH   1  17
ATOM     11  C4' ADN A 701      25.364   5.847   4.080  0.00  0.00    +0.000 C 
ATOM     12  O4' ADN A 701      26.424   4.859   4.037  0.00  0.00    +0.000 OA
ATOM     13  C3' ADN A 701      24.315   5.308   5.036  0.00  0.00    +0.000 C 
ATOM     14  O3' ADN A 701      23.250   4.789   4.256  0.00  0.00    +0.000 OA
ATOM     15  C2' ADN A 701      25.082   4.235   5.825  0.00  0.00    +0.000 C 
ATOM     16  O2' ADN A 701      24.166   3.297   6.384  0.00  0.00    +0.000 OA
ATOM     17  C1' ADN A 701      26.047   3.708   4.766  0.00  0.00    +0.000 C 
BRANCH  11  19
ATOM     18  O5' ADN A 701      27.082   7.198   5.255  0.00  0.00    +0.000 OA
ATOM     19  C5' ADN A 701      25.919   7.220   4.417  0.00  0.00    +0.000 C 
ENDBRANCH  11  19
ENDBRANCH   1  17
TORSDOF 2
ENDMDL
MODEL 7
REMARK VINA RESULT:      -6.8      3.322      5.841
REMARK  Name = ligand_pdbs\ADN.pdb
REMARK  2 active torsions:
REMARK  status: ('A' for Active; 'I' for Inactive)
REMARK    1  A    between atoms: C5'_2  and  C4'_3
REMARK    2  A    between atoms: C1'_9  and  N9_10
REMARK                            x       y       z     vdW  Elec       q    Type
REMARK                         _______ _______ _______ _____ _____    ______ ____
ROOT
ATOM      1  N9  ADN A 701      27.372   2.013   3.860  0.00  0.00    +0.000 N 
ATOM      2  C8  ADN A 701      28.704   2.313   3.960  0.00  0.00    +0.000 C 
ATOM      3  N7  ADN A 701      29.492   1.265   3.974  0.00  0.00    +0.000 NA
ATOM      4  C5  ADN A 701      28.617   0.194   3.858  0.00  0.00    +0.000 C 
ATOM      5  C6  ADN A 701      28.821  -1.200   3.839  0.00  0.00    +0.000 C 
ATOM      6  N6  ADN A 701      30.034  -1.772   3.789  0.00  0.00    +0.000 NA
ATOM      7  N1  ADN A 701      27.731  -2.000   3.770  0.00  0.00    +0.000 NA
ATOM      8  C2  ADN A 701      26.523  -1.429   3.670  0.00  0.00    +0.000 C 
ATOM      9  N3  ADN A 701      26.211  -0.128   3.661  0.00  0.00    +0.000 NA
ATOM     10  C4  ADN A 701      27.307   0.638   3.772  0.00  0.00    +0.000 C 
ENDROOT
BRANCH   1  17
ATOM     11  C4' ADN A 701      26.090   5.304   4.164  0.00  0.00    +0.000 C 
ATOM     12  O4' ADN A 701      26.848   4.240   3.534  0.00  0.00    +0.000 OA
ATOM     13  C3' ADN A 701      25.064   4.628   5.055  0.00  0.00    +0.000 C 
ATOM     14  O3' ADN A 701      23.815   4.681   4.387  0.00  0.00    +0.000 OA
ATOM     15  C2' ADN A 701      25.622   3.205   5.210  0.00  0.00    +0.000 C 
ATOM     16  O2' ADN A 701      24.572   2.309   5.567  0.00  0.00    +0.000 OA
ATOM     17  C1' ADN A 701      26.282   2.985   3.851  0.00  0.00    +0.000 C 
BRANCH  11  19
ATOM     18  O5' ADN A 701      26.350   7.421   5.431  0.00  0.00    +0.000 OA
ATOM     19  C5' ADN A 701      27.016   6.290   4.854  0.00  0.00    +0.000 C 
ENDBRANCH  11  19
ENDBRANCH   1  17
TORSDOF 2
ENDMDL
MODEL 8
REMARK VINA RESULT:      -6.7      1.236      2.507
REMARK  Name = ligand_pdbs\ADN.pdb
REMARK  2 active torsions:
REMARK  status: ('A' for Active; 'I' for Inactive)
REMARK    1  A    between atoms: C5'_2  and  C4'_3
REMARK    2  A    between atoms: C1'_9  and  N9_10
REMARK                            x       y       z     vdW  Elec       q    Type
REMARK                         _______ _______ _______ _____ _____    ______ ____
ROOT
ATOM      1  N9  ADN A 701      27.543   3.540   4.317  0.00  0.00    +0.000 N 
ATOM      2  C8  ADN A 701      28.077   4.798   4.238  0.00  0.00    +0.000 C 
ATOM      3  N7  ADN A 701      27.189   5.763   4.270  0.00  0.00    +0.000 NA
ATOM      4  C5  ADN A 701      25.981   5.093   4.397  0.00  0.00    +0.000 C 
ATOM      5  C6  ADN A 701      24.648   5.546   4.459  0.00  0.00    +0.000 C 
ATOM      6  N6  ADN A 701      24.307   6.841   4.551  0.00  0.00    +0.000 NA
ATOM      7  N1  ADN A 701      23.665   4.618   4.526  0.00  0.00    +0.000 NA
ATOM      8  C2  ADN A 701      24.010   3.324   4.583  0.00  0.00    +0.000 C 
ATOM      9  N3  ADN A 701      25.232   2.782   4.549  0.00  0.00    +0.000 NA
ATOM     10  C4  ADN A 701      26.181   3.723   4.441  0.00  0.00    +0.000 C 
ENDROOT
BRANCH   1  17
ATOM     11  C4' ADN A 701      27.855   0.071   3.659  0.00  0.00    +0.000 C 
ATOM     12  O4' ADN A 701      27.687   1.468   3.305  0.00  0.00    +0.000 OA
ATOM     13  C3' ADN A 701      28.501   0.053   5.033  0.00  0.00    +0.000 C 
ATOM     14  O3' ADN A 701      29.876  -0.243   4.856  0.00  0.00    +0.000 OA
ATOM     15  C2' ADN A 701      28.237   1.472   5.560  0.00  0.00    +0.000 C 
ATOM     16  O2' ADN A 701      29.182   1.795   6.576  0.00  0.00    +0.000 OA
ATOM     17  C1' ADN A 701      28.301   2.293   4.275  0.00  0.00    +0.000 C 
BRANCH  11  19
ATOM     18  O5' ADN A 701      26.616  -2.065   3.895  0.00  0.00    +0.000 OA
ATOM     19  C5' ADN A 701      26.541  -0.679   3.538  0.00  0.00    +0.000 C 
ENDBRANCH  11  19
ENDBRANCH   1  17
TORSDOF 2
ENDMDL
MODEL 9
REMARK VINA RESULT:      -6.1      3.153      5.819
REMARK  Name = ligand_pdbs\ADN.pdb
REMARK  2 active torsions:
REMARK  status: ('A' for Active; 'I' for Inactive)
REMARK    1  A    between atoms: C5'_2  and  C4'_3
REMARK    2  A    between atoms: C1'_9  and  N9_10
REMARK                            x       y       z     vdW  Elec       q    Type
REMARK                         _______ _______ _______ _____ _____    ______ ____
ROOT
ATOM      1  N9  ADN A 701      25.872   2.257   3.548  0.00  0.00    +0.000 N 
ATOM      2  C8  ADN A 701      24.980   1.228   3.404  0.00  0.00    +0.000 C 
ATOM      3  N7  ADN A 701      25.525   0.035   3.438  0.00  0.00    +0.000 NA
ATOM      4  C5  ADN A 701      26.873   0.295   3.636  0.00  0.00    +0.000 C 
ATOM      5  C6  ADN A 701      27.997  -0.549   3.736  0.00  0.00    +0.000 C 
ATOM      6  N6  ADN A 701      27.918  -1.887   3.796  0.00  0.00    +0.000 NA
ATOM      7  N1  ADN A 701      29.214   0.029   3.874  0.00  0.00    +0.000 NA
ATOM      8  C2  ADN A 701      29.282   1.364   3.963  0.00  0.00    +0.000 C 
ATOM      9  N3  ADN A 701      28.289   2.258   3.899  0.00  0.00    +0.000 NA
ATOM     10  C4  ADN A 701      27.102   1.659   3.720  0.00  0.00    +0.000 C 
ENDROOT
BRANCH   1  17
ATOM     11  C4' ADN A 701      26.587   5.669   4.186  0.00  0.00    +0.000 C 
ATOM     12  O4' ADN A 701      26.759   4.390   3.523  0.00  0.00    +0.000 OA
ATOM     13  C3' ADN A 701      25.181   5.670   4.758  0.00  0.00    +0.000 C 
ATOM     14  O3' ADN A 701      24.371   6.460   3.903  0.00  0.00    +0.000 OA
ATOM     15  C2' ADN A 701      24.806   4.180   4.760  0.00  0.00    +0.000 C 
ATOM     16  O2' ADN A 701      23.388   4.038   4.771  0.00  0.00    +0.000 OA
ATOM     17  C1' ADN A 701      25.538   3.678   3.518  0.00  0.00    +0.000 C 
BRANCH  11  19
ATOM     18  O5' ADN A 701      28.040   4.774   5.987  0.00  0.00    +0.000 OA
ATOM     19  C5' ADN A 701      27.705   5.913   5.185  0.00  0.00    +0.000 C 
ENDBRANCH  11  19
ENDBRANCH   1  17
TORSDOF 2
ENDMDL
