MODEL 1
REMARK VINA RESULT:     -10.0      0.000      0.000
REMARK  Name = ligand_pdbs\AV6.pdb
REMARK  1 active torsions:
REMARK  status: ('A' for Active; 'I' for Inactive)
REMARK    1  A    between atoms: C12_12  and  C15_14
REMARK                            x       y       z     vdW  Elec       q    Type
REMARK                         _______ _______ _______ _____ _____    ______ ____
ROOT
ATOM      1  C1  AV6 A1921      25.878   4.251   4.338  0.00  0.00    +0.000 C 
ATOM      2  C2  AV6 A1921      25.160   3.014   4.039  0.00  0.00    +0.000 C 
ATOM      3  C3  AV6 A1921      23.791   2.965   4.102  0.00  0.00    +0.000 C 
ATOM      4  C4  AV6 A1921      23.096   4.107   4.452  0.00  0.00    +0.000 C 
ATOM      5  C5  AV6 A1921      23.723   5.307   4.751  0.00  0.00    +0.000 C 
ATOM      6  C6  AV6 A1921      25.095   5.447   4.697  0.00  0.00    +0.000 C 
ATOM      7  C7  AV6 A1921      25.741   6.638   4.963  0.00  0.00    +0.000 C 
ATOM      8  C8  AV6 A1921      27.123   6.629   4.886  0.00  0.00    +0.000 C 
ATOM      9  C9  AV6 A1921      27.908   5.522   4.553  0.00  0.00    +0.000 C 
ATOM     10  C10 AV6 A1921      27.342   4.304   4.279  0.00  0.00    +0.000 C 
ATOM     11  N11 AV6 A1921      28.027   3.210   3.958  0.00  0.00    +0.000 NA
ATOM     12  C12 AV6 A1921      27.298   1.983   3.636  0.00  0.00    +0.000 C 
ATOM     13  N13 AV6 A1921      25.846   1.947   3.710  0.00  0.00    +0.000 NA
ENDROOT
BRANCH  12  14
ATOM     14  C15 AV6 A1921      27.876   0.645   3.663  0.00  0.00    +0.000 A 
ATOM     15  C16 AV6 A1921      27.088  -0.429   4.115  0.00  0.00    +0.000 A 
ATOM     16  C17 AV6 A1921      27.604  -1.718   4.149  0.00  0.00    +0.000 A 
ATOM     17  C18 AV6 A1921      28.984  -1.890   3.685  0.00  0.00    +0.000 A 
ATOM     18  C19 AV6 A1921      29.700  -0.801   3.237  0.00  0.00    +0.000 A 
ATOM     19  C20 AV6 A1921      29.141   0.451   3.210  0.00  0.00    +0.000 A 
ATOM     20  O21 AV6 A1921      29.572  -3.101   3.666  0.00  0.00    +0.000 OA
ATOM     21  O22 AV6 A1921      26.877  -2.770   4.598  0.00  0.00    +0.000 OA
ENDBRANCH  12  14
TORSDOF 1
ENDMDL
MODEL 2
REMARK VINA RESULT:      -9.7      0.693      2.565
REMARK  Name = ligand_pdbs\AV6.pdb
REMARK  1 active torsions:
REMARK  status: ('A' for Active; 'I' for Inactive)
REMARK    1  A    between atoms: C12_12  and  C15_14
REMARK                            x       y       z     vdW  Elec       q    Type
REMARK                         _______ _______ _______ _____ _____    ______ ____
ROOT
ATOM      1  C1  AV6 A1921      25.758   4.180   4.709  0.00  0.00    +0.000 C 
ATOM      2  C2  AV6 A1921      27.196   3.985   4.876  0.00  0.00    +0.000 C 
ATOM      3  C3  AV6 A1921      28.044   5.058   4.973  0.00  0.00    +0.000 C 
ATOM      4  C4  AV6 A1921      27.517   6.334   4.913  0.00  0.00    +0.000 C 
ATOM      5  C5  AV6 A1921      26.163   6.582   4.750  0.00  0.00    +0.000 C 
ATOM      6  C6  AV6 A1921      25.240   5.559   4.660  0.00  0.00    +0.000 C 
ATOM      7  C7  AV6 A1921      23.884   5.780   4.526  0.00  0.00    +0.000 C 
ATOM      8  C8  AV6 A1921      23.075   4.659   4.430  0.00  0.00    +0.000 C 
ATOM      9  C9  AV6 A1921      23.520   3.336   4.470  0.00  0.00    +0.000 C 
ATOM     10  C10 AV6 A1921      24.851   3.035   4.597  0.00  0.00    +0.000 C 
ATOM     11  N11 AV6 A1921      25.344   1.799   4.638  0.00  0.00    +0.000 NA
ATOM     12  C12 AV6 A1921      26.782   1.614   4.831  0.00  0.00    +0.000 C 
ATOM     13  N13 AV6 A1921      27.667   2.763   4.931  0.00  0.00    +0.000 NA
ENDROOT
BRANCH  12  14
ATOM     14  C15 AV6 A1921      27.511   0.394   4.504  0.00  0.00    +0.000 A 
ATOM     15  C16 AV6 A1921      26.900  -0.850   4.743  0.00  0.00    +0.000 A 
ATOM     16  C17 AV6 A1921      27.563  -2.031   4.438  0.00  0.00    +0.000 A 
ATOM     17  C18 AV6 A1921      28.901  -1.907   3.851  0.00  0.00    +0.000 A 
ATOM     18  C19 AV6 A1921      29.439  -0.659   3.624  0.00  0.00    +0.000 A 
ATOM     19  C20 AV6 A1921      28.739   0.480   3.930  0.00  0.00    +0.000 A 
ATOM     20  O21 AV6 A1921      29.621  -2.993   3.508  0.00  0.00    +0.000 OA
ATOM     21  O22 AV6 A1921      27.010  -3.247   4.677  0.00  0.00    +0.000 OA
ENDBRANCH  12  14
TORSDOF 1
ENDMDL
MODEL 3
REMARK VINA RESULT:      -8.8      3.647      7.075
REMARK  Name = ligand_pdbs\AV6.pdb
REMARK  1 active torsions:
REMARK  status: ('A' for Active; 'I' for Inactive)
REMARK    1  A    between atoms: C12_12  and  C15_14
REMARK                            x       y       z     vdW  Elec       q    Type
REMARK                         _______ _______ _______ _____ _____    ______ ____
ROOT
ATOM      1  C1  AV6 A1921      28.707   1.099   4.588  0.00  0.00    +0.000 C 
ATOM      2  C2  AV6 A1921      29.168   2.153   5.487  0.00  0.00    +0.000 C 
ATOM      3  C3  AV6 A1921      30.085   1.884   6.471  0.00  0.00    +0.000 C 
ATOM      4  C4  AV6 A1921      30.570   0.597   6.600  0.00  0.00    +0.000 C 
ATOM      5  C5  AV6 A1921      30.165  -0.445   5.780  0.00  0.00    +0.000 C 
ATOM      6  C6  AV6 A1921      29.259  -0.258   4.756  0.00  0.00    +0.000 C 
ATOM      7  C7  AV6 A1921      28.862  -1.273   3.908  0.00  0.00    +0.000 C 
ATOM      8  C8  AV6 A1921      27.933  -0.945   2.935  0.00  0.00    +0.000 C 
ATOM      9  C9  AV6 A1921      27.380   0.323   2.738  0.00  0.00    +0.000 C 
ATOM     10  C10 AV6 A1921      27.721   1.380   3.540  0.00  0.00    +0.000 C 
ATOM     11  N11 AV6 A1921      27.232   2.612   3.411  0.00  0.00    +0.000 NA
ATOM     12  C12 AV6 A1921      27.720   3.666   4.301  0.00  0.00    +0.000 C 
ATOM     13  N13 AV6 A1921      28.691   3.364   5.340  0.00  0.00    +0.000 NA
ENDROOT
BRANCH  12  14
ATOM     14  C15 AV6 A1921      27.022   4.921   4.557  0.00  0.00    +0.000 A 
ATOM     15  C16 AV6 A1921      25.627   4.972   4.388  0.00  0.00    +0.000 A 
ATOM     16  C17 AV6 A1921      24.930   6.149   4.629  0.00  0.00    +0.000 A 
ATOM     17  C18 AV6 A1921      25.715   7.305   5.072  0.00  0.00    +0.000 A 
ATOM     18  C19 AV6 A1921      27.079   7.187   5.236  0.00  0.00    +0.000 A 
ATOM     19  C20 AV6 A1921      27.721   5.999   4.998  0.00  0.00    +0.000 A 
ATOM     20  O21 AV6 A1921      25.132   8.487   5.344  0.00  0.00    +0.000 OA
ATOM     21  O22 AV6 A1921      23.588   6.235   4.455  0.00  0.00    +0.000 OA
ENDBRANCH  12  14
TORSDOF 1
ENDMDL
MODEL 4
REMARK VINA RESULT:      -8.3      3.736      7.164
REMARK  Name = ligand_pdbs\AV6.pdb
REMARK  1 active torsions:
REMARK  status: ('A' for Active; 'I' for Inactive)
REMARK    1  A    between atoms: C12_12  and  C15_14
REMARK                            x       y       z     vdW  Elec       q    Type
REMARK                         _______ _______ _______ _____ _____    ______ ____
ROOT
ATOM      1  C1  AV6 A1921      28.567   0.950   4.560  0.00  0.00    +0.000 C 
ATOM      2  C2  AV6 A1921      28.895   2.100   5.398  0.00  0.00    +0.000 C 
ATOM      3  C3  AV6 A1921      29.846   2.004   6.381  0.00  0.00    +0.000 C 
ATOM      4  C4  AV6 A1921      30.495   0.799   6.569  0.00  0.00    +0.000 C 
ATOM      5  C5  AV6 A1921      30.221  -0.328   5.809  0.00  0.00    +0.000 C 
ATOM      6  C6  AV6 A1921      29.291  -0.313   4.790  0.00  0.00    +0.000 C 
ATOM      7  C7  AV6 A1921      29.022  -1.414   4.001  0.00  0.00    +0.000 C 
ATOM      8  C8  AV6 A1921      28.051  -1.260   3.025  0.00  0.00    +0.000 C 
ATOM      9  C9  AV6 A1921      27.338  -0.086   2.772  0.00  0.00    +0.000 C 
ATOM     10  C10 AV6 A1921      27.545   1.047   3.514  0.00  0.00    +0.000 C 
ATOM     11  N11 AV6 A1921      26.900   2.197   3.330  0.00  0.00    +0.000 NA
ATOM     12  C12 AV6 A1921      27.254   3.351   4.157  0.00  0.00    +0.000 C 
ATOM     13  N13 AV6 A1921      28.264   3.231   5.196  0.00  0.00    +0.000 NA
ENDROOT
BRANCH  12  14
ATOM     14  C15 AV6 A1921      26.402   4.517   4.359  0.00  0.00    +0.000 A 
ATOM     15  C16 AV6 A1921      27.002   5.775   4.543  0.00  0.00    +0.000 A 
ATOM     16  C17 AV6 A1921      26.221   6.908   4.732  0.00  0.00    +0.000 A 
ATOM     17  C18 AV6 A1921      24.767   6.720   4.716  0.00  0.00    +0.000 A 
ATOM     18  C19 AV6 A1921      24.238   5.463   4.514  0.00  0.00    +0.000 A 
ATOM     19  C20 AV6 A1921      25.052   4.376   4.318  0.00  0.00    +0.000 A 
ATOM     20  O21 AV6 A1921      23.923   7.756   4.877  0.00  0.00    +0.000 OA
ATOM     21  O22 AV6 A1921      26.769   8.132   4.933  0.00  0.00    +0.000 OA
ENDBRANCH  12  14
TORSDOF 1
ENDMDL
MODEL 5
REMARK VINA RESULT:      -8.1      2.015      2.352
REMARK  Name = ligand_pdbs\AV6.pdb
REMARK  1 active torsions:
REMARK  status: ('A' for Active; 'I' for Inactive)
REMARK    1  A    between atoms: C12_12  and  C15_14
REMARK                            x       y       z     vdW  Elec       q    Type
REMARK                         _______ _______ _______ _____ _____    ______ ____
ROOT
ATOM      1  C1  AV6 A1921      25.605   4.972   4.696  0.00  0.00    +0.000 C 
ATOM      2  C2  AV6 A1921      25.429   3.528   4.561  0.00  0.00    +0.000 C 
ATOM      3  C3  AV6 A1921      24.183   2.987   4.375  0.00  0.00    +0.000 C 
ATOM      4  C4  AV6 A1921      23.090   3.829   4.315  0.00  0.00    +0.000 C 
ATOM      5  C5  AV6 A1921      23.194   5.206   4.442  0.00  0.00    +0.000 C 
ATOM      6  C6  AV6 A1921      24.411   5.833   4.615  0.00  0.00    +0.000 C 
ATOM      7  C7  AV6 A1921      24.544   7.203   4.716  0.00  0.00    +0.000 C 
ATOM      8  C8  AV6 A1921      25.825   7.695   4.905  0.00  0.00    +0.000 C 
ATOM      9  C9  AV6 A1921      26.984   6.919   4.990  0.00  0.00    +0.000 C 
ATOM     10  C10 AV6 A1921      26.934   5.553   4.903  0.00  0.00    +0.000 C 
ATOM     11  N11 AV6 A1921      27.996   4.754   4.979  0.00  0.00    +0.000 NA
ATOM     12  C12 AV6 A1921      27.813   3.311   4.817  0.00  0.00    +0.000 C 
ATOM     13  N13 AV6 A1921      26.484   2.753   4.622  0.00  0.00    +0.000 NA
ENDROOT
BRANCH  12  14
ATOM     14  C15 AV6 A1921      28.766   2.301   5.261  0.00  0.00    +0.000 A 
ATOM     15  C16 AV6 A1921      28.756   1.037   4.645  0.00  0.00    +0.000 A 
ATOM     16  C17 AV6 A1921      29.654   0.053   5.039  0.00  0.00    +0.000 A 
ATOM     17  C18 AV6 A1921      30.600   0.407   6.102  0.00  0.00    +0.000 A 
ATOM     18  C19 AV6 A1921      30.572   1.669   6.654  0.00  0.00    +0.000 A 
ATOM     19  C20 AV6 A1921      29.675   2.612   6.221  0.00  0.00    +0.000 A 
ATOM     20  O21 AV6 A1921      31.519  -0.471   6.545  0.00  0.00    +0.000 OA
ATOM     21  O22 AV6 A1921      29.655  -1.182   4.480  0.00  0.00    +0.000 OA
ENDBRANCH  12  14
TORSDOF 1
ENDMDL
MODEL 6
REMARK VINA RESULT:      -7.6      3.750      6.787
REMARK  Name = ligand_pdbs\AV6.pdb
REMARK  1 active torsions:
REMARK  status: ('A' for Active; 'I' for Inactive)
REMARK    1  A    between atoms: C12_12  and  C15_14
REMARK                            x       y       z     vdW  Elec       q    Type
REMARK                         _______ _______ _______ _____ _____    ______ ____
ROOT
ATOM      1  C1  AV6 A1921      28.324   1.098   4.707  0.00  0.00    +0.000 C 
ATOM      2  C2  AV6 A1921      27.210   1.560   3.883  0.00  0.00    +0.000 C 
ATOM      3  C3  AV6 A1921      26.712   0.778   2.874  0.00  0.00    +0.000 C 
ATOM      4  C4  AV6 A1921      27.280  -0.459   2.644  0.00  0.00    +0.000 C 
ATOM      5  C5  AV6 A1921      28.343  -0.949   3.388  0.00  0.00    +0.000 C 
ATOM      6  C6  AV6 A1921      28.893  -0.234   4.432  0.00  0.00    +0.000 C 
ATOM      7  C7  AV6 A1921      29.932  -0.711   5.206  0.00  0.00    +0.000 C 
ATOM      8  C8  AV6 A1921      30.397   0.122   6.210  0.00  0.00    +0.000 C 
ATOM      9  C9  AV6 A1921      29.892   1.391   6.507  0.00  0.00    +0.000 C 
ATOM     10  C10 AV6 A1921      28.864   1.935   5.782  0.00  0.00    +0.000 C 
ATOM     11  N11 AV6 A1921      28.338   3.137   6.007  0.00  0.00    +0.000 NA
ATOM     12  C12 AV6 A1921      27.205   3.580   5.194  0.00  0.00    +0.000 C 
ATOM     13  N13 AV6 A1921      26.690   2.739   4.125  0.00  0.00    +0.000 NA
ENDROOT
BRANCH  12  14
ATOM     14  C15 AV6 A1921      26.791   4.969   5.039  0.00  0.00    +0.000 A 
ATOM     15  C16 AV6 A1921      25.464   5.248   4.666  0.00  0.00    +0.000 A 
ATOM     16  C17 AV6 A1921      25.034   6.560   4.516  0.00  0.00    +0.000 A 
ATOM     17  C18 AV6 A1921      26.020   7.614   4.774  0.00  0.00    +0.000 A 
ATOM     18  C19 AV6 A1921      27.301   7.278   5.153  0.00  0.00    +0.000 A 
ATOM     19  C20 AV6 A1921      27.675   5.966   5.303  0.00  0.00    +0.000 A 
ATOM     20  O21 AV6 A1921      25.699   8.917   4.668  0.00  0.00    +0.000 OA
ATOM     21  O22 AV6 A1921      23.767   6.860   4.137  0.00  0.00    +0.000 OA
ENDBRANCH  12  14
TORSDOF 1
ENDMDL
MODEL 7
REMARK VINA RESULT:      -7.4      2.182      3.467
REMARK  Name = ligand_pdbs\AV6.pdb
REMARK  1 active torsions:
REMARK  status: ('A' for Active; 'I' for Inactive)
REMARK    1  A    between atoms: C12_12  and  C15_14
REMARK                            x       y       z     vdW  Elec       q    Type
REMARK                         _______ _______ _______ _____ _____    ______ ____
ROOT
ATOM      1  C1  AV6 A1921      25.460   4.846   4.979  0.00  0.00    +0.000 C 
ATOM      2  C2  AV6 A1921      26.810   5.274   5.337  0.00  0.00    +0.000 C 
ATOM      3  C3  AV6 A1921      27.180   6.590   5.235  0.00  0.00    +0.000 C 
ATOM      4  C4  AV6 A1921      26.254   7.512   4.787  0.00  0.00    +0.000 C 
ATOM      5  C5  AV6 A1921      24.961   7.165   4.426  0.00  0.00    +0.000 C 
ATOM      6  C6  AV6 A1921      24.503   5.867   4.515  0.00  0.00    +0.000 C 
ATOM      7  C7  AV6 A1921      23.212   5.500   4.190  0.00  0.00    +0.000 C 
ATOM      8  C8  AV6 A1921      22.894   4.158   4.310  0.00  0.00    +0.000 C 
ATOM      9  C9  AV6 A1921      23.767   3.156   4.743  0.00  0.00    +0.000 C 
ATOM     10  C10 AV6 A1921      25.064   3.439   5.080  0.00  0.00    +0.000 C 
ATOM     11  N11 AV6 A1921      25.949   2.535   5.496  0.00  0.00    +0.000 NA
ATOM     12  C12 AV6 A1921      27.290   2.977   5.877  0.00  0.00    +0.000 C 
ATOM     13  N13 AV6 A1921      27.667   4.377   5.760  0.00  0.00    +0.000 NA
ENDROOT
BRANCH  12  14
ATOM     14  C15 AV6 A1921      28.457   2.106   5.958  0.00  0.00    +0.000 A 
ATOM     15  C16 AV6 A1921      28.442   0.881   5.267  0.00  0.00    +0.000 A 
ATOM     16  C17 AV6 A1921      29.538   0.030   5.318  0.00  0.00    +0.000 A 
ATOM     17  C18 AV6 A1921      30.690   0.479   6.107  0.00  0.00    +0.000 A 
ATOM     18  C19 AV6 A1921      30.650   1.698   6.748  0.00  0.00    +0.000 A 
ATOM     19  C20 AV6 A1921      29.549   2.511   6.656  0.00  0.00    +0.000 A 
ATOM     20  O21 AV6 A1921      31.805  -0.268   6.208  0.00  0.00    +0.000 OA
ATOM     21  O22 AV6 A1921      29.547  -1.167   4.679  0.00  0.00    +0.000 OA
ENDBRANCH  12  14
TORSDOF 1
ENDMDL
