MODEL 1
REMARK VINA RESULT:      -6.7      0.000      0.000
REMARK  Name = ligand_pdbs\B66.pdb
REMARK  8 active torsions:
REMARK  status: ('A' for Active; 'I' for Inactive)
REMARK    1  A    between atoms: C21_3  and  N19_4
REMARK    2  A    between atoms: C16_9  and  O14_10
REMARK    3  A    between atoms: O14_10  and  C13_11
REMARK    4  A    between atoms: C13_11  and  C11_12
REMARK    5  A    between atoms: C11_12  and  C10_15
REMARK    6  A    between atoms: N9_17  and  C6_18
REMARK    7  A    between atoms: C3_22  and  C8_23
REMARK    8  A    between atoms: C4_25  and  C7_26
REMARK                            x       y       z     vdW  Elec       q    Type
REMARK                         _______ _______ _______ _____ _____    ______ ____
ROOT
ATOM      1  C10 B66 A   1      26.347   6.641   5.101  0.00  0.00    +0.000 C 
ATOM      2  O10 B66 A   1      27.555   6.783   5.283  0.00  0.00    +0.000 OA
ATOM      3  N9  B66 A   1      25.711   5.473   5.043  0.00  0.00    +0.000 NA
ENDROOT
BRANCH   3   4
ATOM      4  C6  B66 A   1      26.266   4.264   5.132  0.00  0.00    +0.000 A 
ATOM      5  C5  B66 A   1      26.127   3.281   4.154  0.00  0.00    +0.000 A 
ATOM      6  C1  B66 A   1      27.028   3.992   6.262  0.00  0.00    +0.000 A 
ATOM      7  C2  B66 A   1      27.636   2.750   6.399  0.00  0.00    +0.000 A 
ATOM      8  C3  B66 A   1      27.490   1.777   5.414  0.00  0.00    +0.000 A 
ATOM      9  C4  B66 A   1      26.729   2.027   4.269  0.00  0.00    +0.000 A 
BRANCH   9  10
ATOM     10  C7  B66 A   1      26.568   1.004   3.127  0.00  0.00    +0.000 C 
ATOM     11  F2  B66 A   1      27.756   0.734   2.595  0.00  0.00    +0.000 F 
ATOM     12  F3  B66 A   1      26.022  -0.142   3.523  0.00  0.00    +0.000 F 
ATOM     13  F1  B66 A   1      25.785   1.453   2.149  0.00  0.00    +0.000 F 
ENDBRANCH   9  10
BRANCH   8  14
ATOM     14  C8  B66 A   1      28.166   0.535   5.645  0.00  0.00    +0.000 C 
ATOM     15  N8  B66 A   1      28.710  -0.449   5.821  0.00  0.00    +0.000 NA
ENDBRANCH   8  14
ENDBRANCH   3   4
BRANCH   1  16
ATOM     16  C11 B66 A   1      25.416   7.848   4.974  0.00  0.00    +0.000 C 
ATOM     17  O11 B66 A   1      24.107   7.389   4.630  0.00  0.00    +0.000 OA
ATOM     18  C12 B66 A   1      25.941   8.813   3.908  0.00  0.00    +0.000 C 
BRANCH  16  19
ATOM     19  C13 B66 A   1      25.361   8.553   6.319  0.00  0.00    +0.000 C 
BRANCH  19  20
ATOM     20  O14 B66 A   1      24.325   9.546   6.249  0.00  0.00    +0.000 OA
BRANCH  20  26
ATOM     21  C17 B66 A   1      24.477   9.765   8.604  0.00  0.00    +0.000 A 
ATOM     22  C18 B66 A   1      24.347  10.529   9.760  0.00  0.00    +0.000 A 
ATOM     23  C21 B66 A   1      23.979  11.869   9.676  0.00  0.00    +0.000 A 
ATOM     24  C20 B66 A   1      23.741  12.440   8.427  0.00  0.00    +0.000 A 
ATOM     25  C19 B66 A   1      23.873  11.675   7.272  0.00  0.00    +0.000 A 
ATOM     26  C16 B66 A   1      24.242  10.335   7.355  0.00  0.00    +0.000 A 
BRANCH  23  27
ATOM     27  N19 B66 A   1      23.884  12.607  10.778  0.00  0.00    +0.000 N 
ATOM     28  O20 B66 A   1      22.639  13.180  11.152  0.00  0.00    +0.000 OA
ATOM     29  O19 B66 A   1      25.019  12.799  11.613  0.00  0.00    +0.000 OA
ENDBRANCH  23  27
ENDBRANCH  20  26
ENDBRANCH  19  20
ENDBRANCH  16  19
ENDBRANCH   1  16
TORSDOF 8
ENDMDL
MODEL 2
REMARK VINA RESULT:      -6.7      1.866      2.341
REMARK  Name = ligand_pdbs\B66.pdb
REMARK  8 active torsions:
REMARK  status: ('A' for Active; 'I' for Inactive)
REMARK    1  A    between atoms: C21_3  and  N19_4
REMARK    2  A    between atoms: C16_9  and  O14_10
REMARK    3  A    between atoms: O14_10  and  C13_11
REMARK    4  A    between atoms: C13_11  and  C11_12
REMARK    5  A    between atoms: C11_12  and  C10_15
REMARK    6  A    between atoms: N9_17  and  C6_18
REMARK    7  A    between atoms: C3_22  and  C8_23
REMARK    8  A    between atoms: C4_25  and  C7_26
REMARK                            x       y       z     vdW  Elec       q    Type
REMARK                         _______ _______ _______ _____ _____    ______ ____
ROOT
ATOM      1  C10 B66 A   1      26.533   6.798   4.961  0.00  0.00    +0.000 C 
ATOM      2  O10 B66 A   1      27.650   6.995   5.437  0.00  0.00    +0.000 OA
ATOM      3  N9  B66 A   1      26.097   5.636   4.481  0.00  0.00    +0.000 NA
ENDROOT
BRANCH   3   4
ATOM      4  C6  B66 A   1      26.796   4.504   4.393  0.00  0.00    +0.000 A 
ATOM      5  C5  B66 A   1      27.809   4.156   5.283  0.00  0.00    +0.000 A 
ATOM      6  C1  B66 A   1      26.476   3.634   3.357  0.00  0.00    +0.000 A 
ATOM      7  C2  B66 A   1      27.168   2.437   3.226  0.00  0.00    +0.000 A 
ATOM      8  C3  B66 A   1      28.178   2.100   4.123  0.00  0.00    +0.000 A 
ATOM      9  C4  B66 A   1      28.518   2.958   5.173  0.00  0.00    +0.000 A 
BRANCH   9  10
ATOM     10  C7  B66 A   1      29.596   2.619   6.221  0.00  0.00    +0.000 C 
ATOM     11  F2  B66 A   1      29.573   3.521   7.197  0.00  0.00    +0.000 F 
ATOM     12  F3  B66 A   1      29.437   1.416   6.765  0.00  0.00    +0.000 F 
ATOM     13  F1  B66 A   1      30.823   2.619   5.707  0.00  0.00    +0.000 F 
ENDBRANCH   9  10
BRANCH   8  14
ATOM     14  C8  B66 A   1      28.822   0.839   3.908  0.00  0.00    +0.000 C 
ATOM     15  N8  B66 A   1      29.330  -0.167   3.746  0.00  0.00    +0.000 NA
ENDBRANCH   8  14
ENDBRANCH   3   4
BRANCH   1  16
ATOM     16  C11 B66 A   1      25.478   7.906   4.929  0.00  0.00    +0.000 C 
ATOM     17  O11 B66 A   1      24.218   7.334   4.569  0.00  0.00    +0.000 OA
ATOM     18  C12 B66 A   1      25.879   8.990   3.927  0.00  0.00    +0.000 C 
BRANCH  16  19
ATOM     19  C13 B66 A   1      25.374   8.508   6.321  0.00  0.00    +0.000 C 
BRANCH  19  20
ATOM     20  O14 B66 A   1      24.249   9.401   6.326  0.00  0.00    +0.000 OA
BRANCH  20  26
ATOM     21  C17 B66 A   1      24.478   9.715   8.664  0.00  0.00    +0.000 A 
ATOM     22  C18 B66 A   1      24.398  10.527   9.790  0.00  0.00    +0.000 A 
ATOM     23  C21 B66 A   1      24.049  11.869   9.662  0.00  0.00    +0.000 A 
ATOM     24  C20 B66 A   1      23.782  12.392   8.399  0.00  0.00    +0.000 A 
ATOM     25  C19 B66 A   1      23.865  11.579   7.272  0.00  0.00    +0.000 A 
ATOM     26  C16 B66 A   1      24.213  10.237   7.400  0.00  0.00    +0.000 A 
BRANCH  23  27
ATOM     27  N19 B66 A   1      24.001  12.654  10.734  0.00  0.00    +0.000 N 
ATOM     28  O20 B66 A   1      22.760  13.180  11.183  0.00  0.00    +0.000 OA
ATOM     29  O19 B66 A   1      25.186  12.943  11.466  0.00  0.00    +0.000 OA
ENDBRANCH  23  27
ENDBRANCH  20  26
ENDBRANCH  19  20
ENDBRANCH  16  19
ENDBRANCH   1  16
TORSDOF 8
ENDMDL
MODEL 3
REMARK VINA RESULT:      -5.8      4.475      7.197
REMARK  Name = ligand_pdbs\B66.pdb
REMARK  8 active torsions:
REMARK  status: ('A' for Active; 'I' for Inactive)
REMARK    1  A    between atoms: C21_3  and  N19_4
REMARK    2  A    between atoms: C16_9  and  O14_10
REMARK    3  A    between atoms: O14_10  and  C13_11
REMARK    4  A    between atoms: C13_11  and  C11_12
REMARK    5  A    between atoms: C11_12  and  C10_15
REMARK    6  A    between atoms: N9_17  and  C6_18
REMARK    7  A    between atoms: C3_22  and  C8_23
REMARK    8  A    between atoms: C4_25  and  C7_26
REMARK                            x       y       z     vdW  Elec       q    Type
REMARK                         _______ _______ _______ _____ _____    ______ ____
ROOT
ATOM      1  C10 B66 A   1      26.834   5.337   4.310  0.00  0.00    +0.000 C 
ATOM      2  O10 B66 A   1      27.508   5.300   3.281  0.00  0.00    +0.000 OA
ATOM      3  N9  B66 A   1      27.059   4.609   5.401  0.00  0.00    +0.000 NA
ENDROOT
BRANCH   3   4
ATOM      4  C6  B66 A   1      28.015   3.694   5.559  0.00  0.00    +0.000 A 
ATOM      5  C5  B66 A   1      28.245   2.659   4.656  0.00  0.00    +0.000 A 
ATOM      6  C1  B66 A   1      28.821   3.800   6.687  0.00  0.00    +0.000 A 
ATOM      7  C2  B66 A   1      29.839   2.876   6.894  0.00  0.00    +0.000 A 
ATOM      8  C3  B66 A   1      30.059   1.848   5.983  0.00  0.00    +0.000 A 
ATOM      9  C4  B66 A   1      29.262   1.720   4.842  0.00  0.00    +0.000 A 
BRANCH   9  10
ATOM     10  C7  B66 A   1      29.486   0.628   3.777  0.00  0.00    +0.000 C 
ATOM     11  F2  B66 A   1      28.511   0.673   2.875  0.00  0.00    +0.000 F 
ATOM     12  F3  B66 A   1      30.646   0.750   3.138  0.00  0.00    +0.000 F 
ATOM     13  F1  B66 A   1      29.492  -0.596   4.298  0.00  0.00    +0.000 F 
ENDBRANCH   9  10
BRANCH   8  14
ATOM     14  C8  B66 A   1      31.139   0.956   6.282  0.00  0.00    +0.000 C 
ATOM     15  N8  B66 A   1      32.004   0.255   6.520  0.00  0.00    +0.000 NA
ENDBRANCH   8  14
ENDBRANCH   3   4
BRANCH   1  16
ATOM     16  C11 B66 A   1      25.659   6.306   4.454  0.00  0.00    +0.000 C 
ATOM     17  O11 B66 A   1      25.233   6.714   3.152  0.00  0.00    +0.000 OA
ATOM     18  C12 B66 A   1      26.074   7.521   5.286  0.00  0.00    +0.000 C 
BRANCH  16  19
ATOM     19  C13 B66 A   1      24.520   5.576   5.146  0.00  0.00    +0.000 C 
BRANCH  19  20
ATOM     20  O14 B66 A   1      23.918   4.694   4.184  0.00  0.00    +0.000 OA
BRANCH  20  26
ATOM     21  C17 B66 A   1      24.493   2.759   5.425  0.00  0.00    +0.000 A 
ATOM     22  C18 B66 A   1      25.050   1.486   5.494  0.00  0.00    +0.000 A 
ATOM     23  C21 B66 A   1      25.541   0.874   4.345  0.00  0.00    +0.000 A 
ATOM     24  C20 B66 A   1      25.471   1.544   3.125  0.00  0.00    +0.000 A 
ATOM     25  C19 B66 A   1      24.912   2.817   3.057  0.00  0.00    +0.000 A 
ATOM     26  C16 B66 A   1      24.420   3.430   4.207  0.00  0.00    +0.000 A 
BRANCH  23  27
ATOM     27  N19 B66 A   1      26.046  -0.355   4.404  0.00  0.00    +0.000 N 
ATOM     28  O20 B66 A   1      26.173  -1.135   3.224  0.00  0.00    +0.000 OA
ATOM     29  O19 B66 A   1      26.501  -0.886   5.643  0.00  0.00    +0.000 OA
ENDBRANCH  23  27
ENDBRANCH  20  26
ENDBRANCH  19  20
ENDBRANCH  16  19
ENDBRANCH   1  16
TORSDOF 8
ENDMDL
MODEL 4
REMARK VINA RESULT:      -5.6      5.090      8.443
REMARK  Name = ligand_pdbs\B66.pdb
REMARK  8 active torsions:
REMARK  status: ('A' for Active; 'I' for Inactive)
REMARK    1  A    between atoms: C21_3  and  N19_4
REMARK    2  A    between atoms: C16_9  and  O14_10
REMARK    3  A    between atoms: O14_10  and  C13_11
REMARK    4  A    between atoms: C13_11  and  C11_12
REMARK    5  A    between atoms: C11_12  and  C10_15
REMARK    6  A    between atoms: N9_17  and  C6_18
REMARK    7  A    between atoms: C3_22  and  C8_23
REMARK    8  A    between atoms: C4_25  and  C7_26
REMARK                            x       y       z     vdW  Elec       q    Type
REMARK                         _______ _______ _______ _____ _____    ______ ____
ROOT
ATOM      1  C10 B66 A   1      26.966   0.005   3.467  0.00  0.00    +0.000 C 
ATOM      2  O10 B66 A   1      25.938  -0.127   4.129  0.00  0.00    +0.000 OA
ATOM      3  N9  B66 A   1      27.495   1.168   3.093  0.00  0.00    +0.000 NA
ENDROOT
BRANCH   3   4
ATOM      4  C6  B66 A   1      26.992   2.379   3.332  0.00  0.00    +0.000 A 
ATOM      5  C5  B66 A   1      25.704   2.594   3.818  0.00  0.00    +0.000 A 
ATOM      6  C1  B66 A   1      27.813   3.473   3.085  0.00  0.00    +0.000 A 
ATOM      7  C2  B66 A   1      27.340   4.757   3.326  0.00  0.00    +0.000 A 
ATOM      8  C3  B66 A   1      26.052   4.958   3.813  0.00  0.00    +0.000 A 
ATOM      9  C4  B66 A   1      25.206   3.874   4.068  0.00  0.00    +0.000 A 
BRANCH   9  10
ATOM     10  C7  B66 A   1      23.787   4.033   4.647  0.00  0.00    +0.000 C 
ATOM     11  F2  B66 A   1      23.861   4.440   5.911  0.00  0.00    +0.000 F 
ATOM     12  F3  B66 A   1      23.041   4.905   3.975  0.00  0.00    +0.000 F 
ATOM     13  F1  B66 A   1      23.102   2.893   4.635  0.00  0.00    +0.000 F 
ENDBRANCH   9  10
BRANCH   8  14
ATOM     14  C8  B66 A   1      25.664   6.318   4.037  0.00  0.00    +0.000 C 
ATOM     15  N8  B66 A   1      25.365   7.401   4.221  0.00  0.00    +0.000 NA
ENDBRANCH   8  14
ENDBRANCH   3   4
BRANCH   1  16
ATOM     16  C11 B66 A   1      27.797  -1.207   3.042  0.00  0.00    +0.000 C 
ATOM     17  O11 B66 A   1      27.580  -1.451   1.649  0.00  0.00    +0.000 OA
ATOM     18  C12 B66 A   1      27.404  -2.435   3.866  0.00  0.00    +0.000 C 
BRANCH  16  19
ATOM     19  C13 B66 A   1      29.264  -0.886   3.270  0.00  0.00    +0.000 C 
BRANCH  19  20
ATOM     20  O14 B66 A   1      29.503  -0.919   4.686  0.00  0.00    +0.000 OA
BRANCH  20  26
ATOM     21  C17 B66 A   1      28.367   0.501   6.205  0.00  0.00    +0.000 A 
ATOM     22  C18 B66 A   1      28.196   1.746   6.803  0.00  0.00    +0.000 A 
ATOM     23  C21 B66 A   1      29.055   2.796   6.489  0.00  0.00    +0.000 A 
ATOM     24  C20 B66 A   1      30.085   2.592   5.574  0.00  0.00    +0.000 A 
ATOM     25  C19 B66 A   1      30.256   1.346   4.979  0.00  0.00    +0.000 A 
ATOM     26  C16 B66 A   1      29.398   0.295   5.292  0.00  0.00    +0.000 A 
BRANCH  23  27
ATOM     27  N19 B66 A   1      28.911   3.978   7.082  0.00  0.00    +0.000 N 
ATOM     28  O20 B66 A   1      27.881   4.866   6.670  0.00  0.00    +0.000 OA
ATOM     29  O19 B66 A   1      29.762   4.348   8.160  0.00  0.00    +0.000 OA
ENDBRANCH  23  27
ENDBRANCH  20  26
ENDBRANCH  19  20
ENDBRANCH  16  19
ENDBRANCH   1  16
TORSDOF 8
ENDMDL
MODEL 5
REMARK VINA RESULT:      -5.6      5.863      9.362
REMARK  Name = ligand_pdbs\B66.pdb
REMARK  8 active torsions:
REMARK  status: ('A' for Active; 'I' for Inactive)
REMARK    1  A    between atoms: C21_3  and  N19_4
REMARK    2  A    between atoms: C16_9  and  O14_10
REMARK    3  A    between atoms: O14_10  and  C13_11
REMARK    4  A    between atoms: C13_11  and  C11_12
REMARK    5  A    between atoms: C11_12  and  C10_15
REMARK    6  A    between atoms: N9_17  and  C6_18
REMARK    7  A    between atoms: C3_22  and  C8_23
REMARK    8  A    between atoms: C4_25  and  C7_26
REMARK                            x       y       z     vdW  Elec       q    Type
REMARK                         _______ _______ _______ _____ _____    ______ ____
ROOT
ATOM      1  C10 B66 A   1      29.784   1.919   5.877  0.00  0.00    +0.000 C 
ATOM      2  O10 B66 A   1      30.568   2.851   5.705  0.00  0.00    +0.000 OA
ATOM      3  N9  B66 A   1      28.475   1.961   5.638  0.00  0.00    +0.000 NA
ENDROOT
BRANCH   3   4
ATOM      4  C6  B66 A   1      27.782   3.018   5.215  0.00  0.00    +0.000 A 
ATOM      5  C5  B66 A   1      26.423   3.197   5.464  0.00  0.00    +0.000 A 
ATOM      6  C1  B66 A   1      28.471   3.987   4.495  0.00  0.00    +0.000 A 
ATOM      7  C2  B66 A   1      27.797   5.113   4.037  0.00  0.00    +0.000 A 
ATOM      8  C3  B66 A   1      26.440   5.280   4.294  0.00  0.00    +0.000 A 
ATOM      9  C4  B66 A   1      25.725   4.319   5.016  0.00  0.00    +0.000 A 
BRANCH   9  10
ATOM     10  C7  B66 A   1      24.232   4.471   5.368  0.00  0.00    +0.000 C 
ATOM     11  F2  B66 A   1      23.983   3.880   6.532  0.00  0.00    +0.000 F 
ATOM     12  F3  B66 A   1      23.840   5.739   5.456  0.00  0.00    +0.000 F 
ATOM     13  F1  B66 A   1      23.436   3.914   4.459  0.00  0.00    +0.000 F 
ENDBRANCH   9  10
BRANCH   8  14
ATOM     14  C8  B66 A   1      25.841   6.479   3.790  0.00  0.00    +0.000 C 
ATOM     15  N8  B66 A   1      25.361   7.427   3.381  0.00  0.00    +0.000 NA
ENDBRANCH   8  14
ENDBRANCH   3   4
BRANCH   1  16
ATOM     16  C11 B66 A   1      30.273   0.548   6.349  0.00  0.00    +0.000 C 
ATOM     17  O11 B66 A   1      29.286  -0.025   7.210  0.00  0.00    +0.000 OA
ATOM     18  C12 B66 A   1      31.608   0.685   7.084  0.00  0.00    +0.000 C 
BRANCH  16  19
ATOM     19  C13 B66 A   1      30.449  -0.343   5.130  0.00  0.00    +0.000 C 
BRANCH  19  20
ATOM     20  O14 B66 A   1      29.322  -1.233   5.074  0.00  0.00    +0.000 OA
BRANCH  20  26
ATOM     21  C17 B66 A   1      28.463  -0.099   3.179  0.00  0.00    +0.000 A 
ATOM     22  C18 B66 A   1      27.400   0.478   2.492  0.00  0.00    +0.000 A 
ATOM     23  C21 B66 A   1      26.115   0.435   3.028  0.00  0.00    +0.000 A 
ATOM     24  C20 B66 A   1      25.902  -0.191   4.254  0.00  0.00    +0.000 A 
ATOM     25  C19 B66 A   1      26.967  -0.769   4.939  0.00  0.00    +0.000 A 
ATOM     26  C16 B66 A   1      28.252  -0.726   4.404  0.00  0.00    +0.000 A 
BRANCH  23  27
ATOM     27  N19 B66 A   1      25.093   0.959   2.358  0.00  0.00    +0.000 N 
ATOM     28  O20 B66 A   1      23.993   1.525   3.058  0.00  0.00    +0.000 OA
ATOM     29  O19 B66 A   1      25.108   0.995   0.937  0.00  0.00    +0.000 OA
ENDBRANCH  23  27
ENDBRANCH  20  26
ENDBRANCH  19  20
ENDBRANCH  16  19
ENDBRANCH   1  16
TORSDOF 8
ENDMDL
MODEL 6
REMARK VINA RESULT:      -5.4      5.460      9.123
REMARK  Name = ligand_pdbs\B66.pdb
REMARK  8 active torsions:
REMARK  status: ('A' for Active; 'I' for Inactive)
REMARK    1  A    between atoms: C21_3  and  N19_4
REMARK    2  A    between atoms: C16_9  and  O14_10
REMARK    3  A    between atoms: O14_10  and  C13_11
REMARK    4  A    between atoms: C13_11  and  C11_12
REMARK    5  A    between atoms: C11_12  and  C10_15
REMARK    6  A    between atoms: N9_17  and  C6_18
REMARK    7  A    between atoms: C3_22  and  C8_23
REMARK    8  A    between atoms: C4_25  and  C7_26
REMARK                            x       y       z     vdW  Elec       q    Type
REMARK                         _______ _______ _______ _____ _____    ______ ____
ROOT
ATOM      1  C10 B66 A   1      26.442  -0.380   3.491  0.00  0.00    +0.000 C 
ATOM      2  O10 B66 A   1      26.409   0.000   2.321  0.00  0.00    +0.000 OA
ATOM      3  N9  B66 A   1      26.151   0.370   4.551  0.00  0.00    +0.000 NA
ENDROOT
BRANCH   3   4
ATOM      4  C6  B66 A   1      25.815   1.660   4.539  0.00  0.00    +0.000 A 
ATOM      5  C5  B66 A   1      26.655   2.669   4.071  0.00  0.00    +0.000 A 
ATOM      6  C1  B66 A   1      24.553   1.997   5.014  0.00  0.00    +0.000 A 
ATOM      7  C2  B66 A   1      24.151   3.327   5.016  0.00  0.00    +0.000 A 
ATOM      8  C3  B66 A   1      24.999   4.325   4.544  0.00  0.00    +0.000 A 
ATOM      9  C4  B66 A   1      26.273   4.011   4.061  0.00  0.00    +0.000 A 
BRANCH   9  10
ATOM     10  C7  B66 A   1      27.238   5.067   3.487  0.00  0.00    +0.000 C 
ATOM     11  F2  B66 A   1      26.672   5.675   2.449  0.00  0.00    +0.000 F 
ATOM     12  F3  B66 A   1      27.584   5.997   4.372  0.00  0.00    +0.000 F 
ATOM     13  F1  B66 A   1      28.381   4.534   3.063  0.00  0.00    +0.000 F 
ENDBRANCH   9  10
BRANCH   8  14
ATOM     14  C8  B66 A   1      24.486   5.661   4.577  0.00  0.00    +0.000 C 
ATOM     15  N8  B66 A   1      24.083   6.725   4.595  0.00  0.00    +0.000 NA
ENDBRANCH   8  14
ENDBRANCH   3   4
BRANCH   1  16
ATOM     16  C11 B66 A   1      26.781  -1.830   3.844  0.00  0.00    +0.000 C 
ATOM     17  O11 B66 A   1      25.756  -2.683   3.329  0.00  0.00    +0.000 OA
ATOM     18  C12 B66 A   1      26.898  -1.992   5.361  0.00  0.00    +0.000 C 
BRANCH  16  19
ATOM     19  C13 B66 A   1      28.104  -2.185   3.187  0.00  0.00    +0.000 C 
BRANCH  19  20
ATOM     20  O14 B66 A   1      29.126  -2.110   4.194  0.00  0.00    +0.000 OA
BRANCH  20  26
ATOM     21  C17 B66 A   1      29.343  -0.588   5.998  0.00  0.00    +0.000 A 
ATOM     22  C18 B66 A   1      29.543   0.704   6.475  0.00  0.00    +0.000 A 
ATOM     23  C21 B66 A   1      29.777   1.749   5.586  0.00  0.00    +0.000 A 
ATOM     24  C20 B66 A   1      29.811   1.494   4.217  0.00  0.00    +0.000 A 
ATOM     25  C19 B66 A   1      29.613   0.201   3.741  0.00  0.00    +0.000 A 
ATOM     26  C16 B66 A   1      29.378  -0.845   4.630  0.00  0.00    +0.000 A 
BRANCH  23  27
ATOM     27  N19 B66 A   1      29.999   2.979   6.042  0.00  0.00    +0.000 N 
ATOM     28  O20 B66 A   1      28.916   3.784   6.486  0.00  0.00    +0.000 OA
ATOM     29  O19 B66 A   1      31.325   3.485   6.127  0.00  0.00    +0.000 OA
ENDBRANCH  23  27
ENDBRANCH  20  26
ENDBRANCH  19  20
ENDBRANCH  16  19
ENDBRANCH   1  16
TORSDOF 8
ENDMDL
MODEL 7
REMARK VINA RESULT:      -4.9      1.745      2.391
REMARK  Name = ligand_pdbs\B66.pdb
REMARK  8 active torsions:
REMARK  status: ('A' for Active; 'I' for Inactive)
REMARK    1  A    between atoms: C21_3  and  N19_4
REMARK    2  A    between atoms: C16_9  and  O14_10
REMARK    3  A    between atoms: O14_10  and  C13_11
REMARK    4  A    between atoms: C13_11  and  C11_12
REMARK    5  A    between atoms: C11_12  and  C10_15
REMARK    6  A    between atoms: N9_17  and  C6_18
REMARK    7  A    between atoms: C3_22  and  C8_23
REMARK    8  A    between atoms: C4_25  and  C7_26
REMARK                            x       y       z     vdW  Elec       q    Type
REMARK                         _______ _______ _______ _____ _____    ______ ____
ROOT
ATOM      1  C10 B66 A   1      25.554   5.436   5.023  0.00  0.00    +0.000 C 
ATOM      2  O10 B66 A   1      25.731   5.080   6.187  0.00  0.00    +0.000 OA
ATOM      3  N9  B66 A   1      25.687   4.656   3.952  0.00  0.00    +0.000 NA
ENDROOT
BRANCH   3   4
ATOM      4  C6  B66 A   1      26.069   3.379   3.947  0.00  0.00    +0.000 A 
ATOM      5  C5  B66 A   1      27.398   2.974   4.057  0.00  0.00    +0.000 A 
ATOM      6  C1  B66 A   1      25.075   2.414   3.833  0.00  0.00    +0.000 A 
ATOM      7  C2  B66 A   1      25.419   1.068   3.830  0.00  0.00    +0.000 A 
ATOM      8  C3  B66 A   1      26.750   0.677   3.943  0.00  0.00    +0.000 A 
ATOM      9  C4  B66 A   1      27.768   1.628   4.058  0.00  0.00    +0.000 A 
BRANCH   9  10
ATOM     10  C7  B66 A   1      29.253   1.253   4.228  0.00  0.00    +0.000 C 
ATOM     11  F2  B66 A   1      29.766   0.901   3.053  0.00  0.00    +0.000 F 
ATOM     12  F3  B66 A   1      29.991   2.244   4.721  0.00  0.00    +0.000 F 
ATOM     13  F1  B66 A   1      29.427   0.230   5.061  0.00  0.00    +0.000 F 
ENDBRANCH   9  10
BRANCH   8  14
ATOM     14  C8  B66 A   1      26.999  -0.734   3.941  0.00  0.00    +0.000 C 
ATOM     15  N8  B66 A   1      27.199  -1.854   3.950  0.00  0.00    +0.000 NA
ENDBRANCH   8  14
ENDBRANCH   3   4
BRANCH   1  16
ATOM     16  C11 B66 A   1      25.090   6.855   4.689  0.00  0.00    +0.000 C 
ATOM     17  O11 B66 A   1      23.665   6.859   4.567  0.00  0.00    +0.000 OA
ATOM     18  C12 B66 A   1      25.738   7.332   3.388  0.00  0.00    +0.000 C 
BRANCH  16  19
ATOM     19  C13 B66 A   1      25.496   7.772   5.830  0.00  0.00    +0.000 C 
BRANCH  19  20
ATOM     20  O14 B66 A   1      24.809   9.021   5.651  0.00  0.00    +0.000 OA
BRANCH  20  26
ATOM     21  C17 B66 A   1      23.812  10.855   6.773  0.00  0.00    +0.000 A 
ATOM     22  C18 B66 A   1      23.610  11.603   7.928  0.00  0.00    +0.000 A 
ATOM     23  C21 B66 A   1      24.186  11.203   9.131  0.00  0.00    +0.000 A 
ATOM     24  C20 B66 A   1      24.965  10.049   9.170  0.00  0.00    +0.000 A 
ATOM     25  C19 B66 A   1      25.165   9.300   8.014  0.00  0.00    +0.000 A 
ATOM     26  C16 B66 A   1      24.588   9.700   6.810  0.00  0.00    +0.000 A 
BRANCH  23  27
ATOM     27  N19 B66 A   1      23.969  11.901  10.242  0.00  0.00    +0.000 N 
ATOM     28  O20 B66 A   1      24.985  12.742  10.770  0.00  0.00    +0.000 OA
ATOM     29  O19 B66 A   1      22.705  11.842  10.892  0.00  0.00    +0.000 OA
ENDBRANCH  23  27
ENDBRANCH  20  26
ENDBRANCH  19  20
ENDBRANCH  16  19
ENDBRANCH   1  16
TORSDOF 8
ENDMDL
MODEL 8
REMARK VINA RESULT:      -4.3      5.334      9.306
REMARK  Name = ligand_pdbs\B66.pdb
REMARK  8 active torsions:
REMARK  status: ('A' for Active; 'I' for Inactive)
REMARK    1  A    between atoms: C21_3  and  N19_4
REMARK    2  A    between atoms: C16_9  and  O14_10
REMARK    3  A    between atoms: O14_10  and  C13_11
REMARK    4  A    between atoms: C13_11  and  C11_12
REMARK    5  A    between atoms: C11_12  and  C10_15
REMARK    6  A    between atoms: N9_17  and  C6_18
REMARK    7  A    between atoms: C3_22  and  C8_23
REMARK    8  A    between atoms: C4_25  and  C7_26
REMARK                            x       y       z     vdW  Elec       q    Type
REMARK                         _______ _______ _______ _____ _____    ______ ____
ROOT
ATOM      1  C10 B66 A   1      26.082   2.013   3.297  0.00  0.00    +0.000 C 
ATOM      2  O10 B66 A   1      27.226   2.445   3.162  0.00  0.00    +0.000 OA
ATOM      3  N9  B66 A   1      25.049   2.707   3.770  0.00  0.00    +0.000 NA
ENDROOT
BRANCH   3   4
ATOM      4  C6  B66 A   1      25.078   3.964   4.213  0.00  0.00    +0.000 A 
ATOM      5  C5  B66 A   1      26.256   4.677   4.426  0.00  0.00    +0.000 A 
ATOM      6  C1  B66 A   1      23.858   4.582   4.463  0.00  0.00    +0.000 A 
ATOM      7  C2  B66 A   1      23.832   5.894   4.919  0.00  0.00    +0.000 A 
ATOM      8  C3  B66 A   1      25.016   6.596   5.126  0.00  0.00    +0.000 A 
ATOM      9  C4  B66 A   1      26.255   5.997   4.882  0.00  0.00    +0.000 A 
BRANCH   9  10
ATOM     10  C7  B66 A   1      27.595   6.738   5.051  0.00  0.00    +0.000 C 
ATOM     11  F2  B66 A   1      28.542   6.120   4.351  0.00  0.00    +0.000 F 
ATOM     12  F3  B66 A   1      27.548   8.006   4.653  0.00  0.00    +0.000 F 
ATOM     13  F1  B66 A   1      27.998   6.778   6.319  0.00  0.00    +0.000 F 
ENDBRANCH   9  10
BRANCH   8  14
ATOM     14  C8  B66 A   1      24.881   7.946   5.585  0.00  0.00    +0.000 C 
ATOM     15  N8  B66 A   1      24.783   9.020   5.947  0.00  0.00    +0.000 NA
ENDBRANCH   8  14
ENDBRANCH   3   4
BRANCH   1  16
ATOM     16  C11 B66 A   1      25.713   0.593   2.861  0.00  0.00    +0.000 C 
ATOM     17  O11 B66 A   1      26.788   0.053   2.088  0.00  0.00    +0.000 OA
ATOM     18  C12 B66 A   1      24.421   0.609   2.042  0.00  0.00    +0.000 C 
BRANCH  16  19
ATOM     19  C13 B66 A   1      25.519  -0.254   4.107  0.00  0.00    +0.000 C 
BRANCH  19  20
ATOM     20  O14 B66 A   1      26.630  -1.161   4.196  0.00  0.00    +0.000 OA
BRANCH  20  26
ATOM     21  C17 B66 A   1      27.650   0.202   5.844  0.00  0.00    +0.000 A 
ATOM     22  C18 B66 A   1      28.773   0.834   6.367  0.00  0.00    +0.000 A 
ATOM     23  C21 B66 A   1      30.015   0.668   5.761  0.00  0.00    +0.000 A 
ATOM     24  C20 B66 A   1      30.125  -0.134   4.627  0.00  0.00    +0.000 A 
ATOM     25  C19 B66 A   1      29.001  -0.767   4.106  0.00  0.00    +0.000 A 
ATOM     26  C16 B66 A   1      27.758  -0.602   4.712  0.00  0.00    +0.000 A 
BRANCH  23  27
ATOM     27  N19 B66 A   1      31.096   1.247   6.278  0.00  0.00    +0.000 N 
ATOM     28  O20 B66 A   1      31.952   0.519   7.146  0.00  0.00    +0.000 OA
ATOM     29  O19 B66 A   1      31.425   2.587   5.935  0.00  0.00    +0.000 OA
ENDBRANCH  23  27
ENDBRANCH  20  26
ENDBRANCH  19  20
ENDBRANCH  16  19
ENDBRANCH   1  16
TORSDOF 8
ENDMDL
MODEL 9
REMARK VINA RESULT:      -4.2      5.097      6.973
REMARK  Name = ligand_pdbs\B66.pdb
REMARK  8 active torsions:
REMARK  status: ('A' for Active; 'I' for Inactive)
REMARK    1  A    between atoms: C21_3  and  N19_4
REMARK    2  A    between atoms: C16_9  and  O14_10
REMARK    3  A    between atoms: O14_10  and  C13_11
REMARK    4  A    between atoms: C13_11  and  C11_12
REMARK    5  A    between atoms: C11_12  and  C10_15
REMARK    6  A    between atoms: N9_17  and  C6_18
REMARK    7  A    between atoms: C3_22  and  C8_23
REMARK    8  A    between atoms: C4_25  and  C7_26
REMARK                            x       y       z     vdW  Elec       q    Type
REMARK                         _______ _______ _______ _____ _____    ______ ____
ROOT
ATOM      1  C10 B66 A   1      25.724   4.123   3.951  0.00  0.00    +0.000 C 
ATOM      2  O10 B66 A   1      24.672   3.733   4.456  0.00  0.00    +0.000 OA
ATOM      3  N9  B66 A   1      26.711   3.335   3.528  0.00  0.00    +0.000 NA
ENDROOT
BRANCH   3   4
ATOM      4  C6  B66 A   1      26.753   2.006   3.610  0.00  0.00    +0.000 A 
ATOM      5  C5  B66 A   1      27.899   1.256   3.356  0.00  0.00    +0.000 A 
ATOM      6  C1  B66 A   1      25.584   1.351   3.979  0.00  0.00    +0.000 A 
ATOM      7  C2  B66 A   1      25.577  -0.035   4.088  0.00  0.00    +0.000 A 
ATOM      8  C3  B66 A   1      26.729  -0.772   3.833  0.00  0.00    +0.000 A 
ATOM      9  C4  B66 A   1      27.917  -0.136   3.460  0.00  0.00    +0.000 A 
BRANCH   9  10
ATOM     10  C7  B66 A   1      29.234  -0.896   3.207  0.00  0.00    +0.000 C 
ATOM     11  F2  B66 A   1      29.813  -1.189   4.367  0.00  0.00    +0.000 F 
ATOM     12  F3  B66 A   1      29.064  -2.029   2.532  0.00  0.00    +0.000 F 
ATOM     13  F1  B66 A   1      30.104  -0.183   2.495  0.00  0.00    +0.000 F 
ENDBRANCH   9  10
BRANCH   8  14
ATOM     14  C8  B66 A   1      26.620  -2.192   3.984  0.00  0.00    +0.000 C 
ATOM     15  N8  B66 A   1      26.528  -3.319   4.113  0.00  0.00    +0.000 NA
ENDBRANCH   8  14
ENDBRANCH   3   4
BRANCH   1  16
ATOM     16  C11 B66 A   1      25.981   5.610   3.701  0.00  0.00    +0.000 C 
ATOM     17  O11 B66 A   1      24.763   6.330   3.905  0.00  0.00    +0.000 OA
ATOM     18  C12 B66 A   1      26.498   5.827   2.277  0.00  0.00    +0.000 C 
BRANCH  16  19
ATOM     19  C13 B66 A   1      27.019   6.091   4.702  0.00  0.00    +0.000 C 
BRANCH  19  20
ATOM     20  O14 B66 A   1      26.744   5.449   5.957  0.00  0.00    +0.000 OA
BRANCH  20  26
ATOM     21  C17 B66 A   1      28.794   4.293   5.675  0.00  0.00    +0.000 A 
ATOM     22  C18 B66 A   1      29.575   3.154   5.842  0.00  0.00    +0.000 A 
ATOM     23  C21 B66 A   1      29.065   2.050   6.520  0.00  0.00    +0.000 A 
ATOM     24  C20 B66 A   1      27.770   2.094   7.031  0.00  0.00    +0.000 A 
ATOM     25  C19 B66 A   1      26.990   3.235   6.864  0.00  0.00    +0.000 A 
ATOM     26  C16 B66 A   1      27.499   4.340   6.186  0.00  0.00    +0.000 A 
BRANCH  23  27
ATOM     27  N19 B66 A   1      29.821   0.972   6.707  0.00  0.00    +0.000 N 
ATOM     28  O20 B66 A   1      29.225  -0.269   7.059  0.00  0.00    +0.000 OA
ATOM     29  O19 B66 A   1      31.229   1.041   6.519  0.00  0.00    +0.000 OA
ENDBRANCH  23  27
ENDBRANCH  20  26
ENDBRANCH  19  20
ENDBRANCH  16  19
ENDBRANCH   1  16
TORSDOF 8
ENDMDL
