MODEL 1
REMARK VINA RESULT:      -6.2      0.000      0.000
REMARK  Name = ligand_pdbs\B67.pdb
REMARK  7 active torsions:
REMARK  status: ('A' for Active; 'I' for Inactive)
REMARK    1  A    between atoms: C7_2  and  C4_5
REMARK    2  A    between atoms: C3_7  and  N8_8
REMARK    3  A    between atoms: C6_13  and  N9_14
REMARK    4  A    between atoms: C10_15  and  C11_17
REMARK    5  A    between atoms: C11_17  and  C13_20
REMARK    6  A    between atoms: C13_20  and  O14_21
REMARK    7  A    between atoms: O14_21  and  C16_22
REMARK                            x       y       z     vdW  Elec       q    Type
REMARK                         _______ _______ _______ _____ _____    ______ ____
ROOT
ATOM      1  N9  B67 A   1      28.713   2.927   4.818  0.00  0.00    +0.000 NA
ATOM      2  C10 B67 A   1      29.322   2.692   5.980  0.00  0.00    +0.000 C 
ATOM      3  O10 B67 A   1      29.118   3.316   7.020  0.00  0.00    +0.000 OA
ENDROOT
BRANCH   1   9
ATOM      4  C4  B67 A   1      25.511   4.726   4.762  0.00  0.00    +0.000 A 
ATOM      5  C5  B67 A   1      26.454   3.706   4.892  0.00  0.00    +0.000 A 
ATOM      6  C3  B67 A   1      25.967   5.979   4.347  0.00  0.00    +0.000 A 
ATOM      7  C2  B67 A   1      27.315   6.159   4.049  0.00  0.00    +0.000 A 
ATOM      8  C1  B67 A   1      28.239   5.130   4.179  0.00  0.00    +0.000 A 
ATOM      9  C6  B67 A   1      27.807   3.882   4.616  0.00  0.00    +0.000 A 
BRANCH   4  11
ATOM     10  F1  B67 A   1      23.639   3.352   4.267  0.00  0.00    +0.000 F 
ATOM     11  C7  B67 A   1      24.025   4.393   4.999  0.00  0.00    +0.000 C 
ATOM     12  F2  B67 A   1      23.819   4.067   6.272  0.00  0.00    +0.000 F 
ATOM     13  F3  B67 A   1      23.223   5.398   4.659  0.00  0.00    +0.000 F 
ENDBRANCH   4  11
BRANCH   6  14
ATOM     14  N8  B67 A   1      25.231   7.088   4.389  0.00  0.00    +0.000 N 
ATOM     15  O2  B67 A   1      24.614   7.538   3.192  0.00  0.00    +0.000 OA
ATOM     16  O1  B67 A   1      24.973   7.808   5.586  0.00  0.00    +0.000 OA
ENDBRANCH   6  14
ENDBRANCH   1   9
BRANCH   2  17
ATOM     17  C11 B67 A   1      30.348   1.557   5.941  0.00  0.00    +0.000 C 
ATOM     18  O11 B67 A   1      30.109   0.660   7.030  0.00  0.00    +0.000 OA
ATOM     19  C12 B67 A   1      31.765   2.128   6.027  0.00  0.00    +0.000 C 
BRANCH  17  20
ATOM     20  C13 B67 A   1      30.188   0.821   4.620  0.00  0.00    +0.000 C 
BRANCH  20  21
ATOM     21  O14 B67 A   1      29.318  -0.321   4.715  0.00  0.00    +0.000 OA
BRANCH  21  22
ATOM     22  C16 B67 A   1      28.055  -0.044   4.282  0.00  0.00    +0.000 A 
ATOM     23  C17 B67 A   1      27.778   0.013   2.918  0.00  0.00    +0.000 A 
ATOM     24  F17 B67 A   1      28.784  -0.237   2.054  0.00  0.00    +0.000 F 
ATOM     25  C18 B67 A   1      26.492   0.326   2.473  0.00  0.00    +0.000 A 
ATOM     26  F18 B67 A   1      26.248   0.438   1.147  0.00  0.00    +0.000 F 
ATOM     27  C19 B67 A   1      25.477   0.562   3.402  0.00  0.00    +0.000 A 
ATOM     28  F19 B67 A   1      24.216   0.802   2.979  0.00  0.00    +0.000 F 
ATOM     29  C20 B67 A   1      25.752   0.508   4.773  0.00  0.00    +0.000 A 
ATOM     30  F20 B67 A   1      24.764   0.685   5.677  0.00  0.00    +0.000 F 
ATOM     31  C21 B67 A   1      27.047   0.218   5.205  0.00  0.00    +0.000 A 
ATOM     32  F21 B67 A   1      27.385   0.226   6.514  0.00  0.00    +0.000 F 
ENDBRANCH  21  22
ENDBRANCH  20  21
ENDBRANCH  17  20
ENDBRANCH   2  17
TORSDOF 7
ENDMDL
MODEL 2
REMARK VINA RESULT:      -6.2      0.045      1.880
REMARK  Name = ligand_pdbs\B67.pdb
REMARK  7 active torsions:
REMARK  status: ('A' for Active; 'I' for Inactive)
REMARK    1  A    between atoms: C7_2  and  C4_5
REMARK    2  A    between atoms: C3_7  and  N8_8
REMARK    3  A    between atoms: C6_13  and  N9_14
REMARK    4  A    between atoms: C10_15  and  C11_17
REMARK    5  A    between atoms: C11_17  and  C13_20
REMARK    6  A    between atoms: C13_20  and  O14_21
REMARK    7  A    between atoms: O14_21  and  C16_22
REMARK                            x       y       z     vdW  Elec       q    Type
REMARK                         _______ _______ _______ _____ _____    ______ ____
ROOT
ATOM      1  N9  B67 A   1      28.705   2.963   4.819  0.00  0.00    +0.000 NA
ATOM      2  C10 B67 A   1      29.297   2.710   5.986  0.00  0.00    +0.000 C 
ATOM      3  O10 B67 A   1      29.071   3.312   7.034  0.00  0.00    +0.000 OA
ENDROOT
BRANCH   1   9
ATOM      4  C4  B67 A   1      25.496   4.751   4.778  0.00  0.00    +0.000 A 
ATOM      5  C5  B67 A   1      26.444   3.735   4.904  0.00  0.00    +0.000 A 
ATOM      6  C3  B67 A   1      25.947   6.005   4.359  0.00  0.00    +0.000 A 
ATOM      7  C2  B67 A   1      27.292   6.190   4.054  0.00  0.00    +0.000 A 
ATOM      8  C1  B67 A   1      28.221   5.164   4.180  0.00  0.00    +0.000 A 
ATOM      9  C6  B67 A   1      27.795   3.915   4.621  0.00  0.00    +0.000 A 
BRANCH   4  11
ATOM     10  F1  B67 A   1      23.624   3.376   4.286  0.00  0.00    +0.000 F 
ATOM     11  C7  B67 A   1      24.013   4.414   5.023  0.00  0.00    +0.000 C 
ATOM     12  F2  B67 A   1      23.817   4.079   6.294  0.00  0.00    +0.000 F 
ATOM     13  F3  B67 A   1      23.207   5.418   4.693  0.00  0.00    +0.000 F 
ENDBRANCH   4  11
BRANCH   6  14
ATOM     14  N8  B67 A   1      25.207   7.112   4.404  0.00  0.00    +0.000 N 
ATOM     15  O2  B67 A   1      24.577   7.555   3.211  0.00  0.00    +0.000 OA
ATOM     16  O1  B67 A   1      24.957   7.835   5.601  0.00  0.00    +0.000 OA
ENDBRANCH   6  14
ENDBRANCH   1   9
BRANCH   2  17
ATOM     17  C11 B67 A   1      30.333   1.583   5.942  0.00  0.00    +0.000 C 
ATOM     18  O11 B67 A   1      30.098   0.677   7.023  0.00  0.00    +0.000 OA
ATOM     19  C12 B67 A   1      31.744   2.166   6.037  0.00  0.00    +0.000 C 
BRANCH  17  20
ATOM     20  C13 B67 A   1      30.183   0.857   4.614  0.00  0.00    +0.000 C 
BRANCH  20  21
ATOM     21  O14 B67 A   1      29.302  -0.278   4.692  0.00  0.00    +0.000 OA
BRANCH  21  22
ATOM     22  C16 B67 A   1      28.043   0.015   4.258  0.00  0.00    +0.000 A 
ATOM     23  C17 B67 A   1      27.023   0.254   5.176  0.00  0.00    +0.000 A 
ATOM     24  F17 B67 A   1      27.328   0.211   6.490  0.00  0.00    +0.000 F 
ATOM     25  C18 B67 A   1      25.727   0.525   4.733  0.00  0.00    +0.000 A 
ATOM     26  F18 B67 A   1      24.732   0.697   5.634  0.00  0.00    +0.000 F 
ATOM     27  C19 B67 A   1      25.460   0.575   3.364  0.00  0.00    +0.000 A 
ATOM     28  F19 B67 A   1      24.222   0.900   2.929  0.00  0.00    +0.000 F 
ATOM     29  C20 B67 A   1      26.481   0.332   2.439  0.00  0.00    +0.000 A 
ATOM     30  F20 B67 A   1      26.241   0.429   1.113  0.00  0.00    +0.000 F 
ATOM     31  C21 B67 A   1      27.767   0.040   2.894  0.00  0.00    +0.000 A 
ATOM     32  F21 B67 A   1      28.773  -0.275   2.047  0.00  0.00    +0.000 F 
ENDBRANCH  21  22
ENDBRANCH  20  21
ENDBRANCH  17  20
ENDBRANCH   2  17
TORSDOF 7
ENDMDL
MODEL 3
REMARK VINA RESULT:      -6.1      2.130      3.968
REMARK  Name = ligand_pdbs\B67.pdb
REMARK  7 active torsions:
REMARK  status: ('A' for Active; 'I' for Inactive)
REMARK    1  A    between atoms: C7_2  and  C4_5
REMARK    2  A    between atoms: C3_7  and  N8_8
REMARK    3  A    between atoms: C6_13  and  N9_14
REMARK    4  A    between atoms: C10_15  and  C11_17
REMARK    5  A    between atoms: C11_17  and  C13_20
REMARK    6  A    between atoms: C13_20  and  O14_21
REMARK    7  A    between atoms: O14_21  and  C16_22
REMARK                            x       y       z     vdW  Elec       q    Type
REMARK                         _______ _______ _______ _____ _____    ______ ____
ROOT
ATOM      1  N9  B67 A   1      27.458   1.339   3.243  0.00  0.00    +0.000 NA
ATOM      2  C10 B67 A   1      26.741   0.217   3.300  0.00  0.00    +0.000 C 
ATOM      3  O10 B67 A   1      25.524   0.168   3.467  0.00  0.00    +0.000 OA
ENDROOT
BRANCH   1   9
ATOM      4  C4  B67 A   1      25.189   4.094   4.112  0.00  0.00    +0.000 A 
ATOM      5  C5  B67 A   1      25.690   2.810   3.895  0.00  0.00    +0.000 A 
ATOM      6  C3  B67 A   1      26.019   5.172   3.798  0.00  0.00    +0.000 A 
ATOM      7  C2  B67 A   1      27.280   4.939   3.257  0.00  0.00    +0.000 A 
ATOM      8  C1  B67 A   1      27.760   3.653   3.042  0.00  0.00    +0.000 A 
ATOM      9  C6  B67 A   1      26.958   2.566   3.374  0.00  0.00    +0.000 A 
BRANCH   4  11
ATOM     10  F1  B67 A   1      23.063   3.106   4.487  0.00  0.00    +0.000 F 
ATOM     11  C7  B67 A   1      23.736   4.248   4.600  0.00  0.00    +0.000 C 
ATOM     12  F2  B67 A   1      23.711   4.585   5.886  0.00  0.00    +0.000 F 
ATOM     13  F3  B67 A   1      23.058   5.144   3.889  0.00  0.00    +0.000 F 
ENDBRANCH   4  11
BRANCH   6  14
ATOM     14  N8  B67 A   1      25.767   6.432   4.152  0.00  0.00    +0.000 N 
ATOM     15  O2  B67 A   1      26.265   6.897   5.398  0.00  0.00    +0.000 OA
ATOM     16  O1  B67 A   1      25.085   7.356   3.317  0.00  0.00    +0.000 OA
ENDBRANCH   6  14
ENDBRANCH   1   9
BRANCH   2  17
ATOM     17  C11 B67 A   1      27.560  -1.068   3.153  0.00  0.00    +0.000 C 
ATOM     18  O11 B67 A   1      27.828  -1.308   1.769  0.00  0.00    +0.000 OA
ATOM     19  C12 B67 A   1      26.794  -2.248   3.755  0.00  0.00    +0.000 C 
BRANCH  17  20
ATOM     20  C13 B67 A   1      28.867  -0.885   3.909  0.00  0.00    +0.000 C 
BRANCH  20  21
ATOM     21  O14 B67 A   1      28.684  -0.808   5.334  0.00  0.00    +0.000 OA
BRANCH  21  22
ATOM     22  C16 B67 A   1      28.840   0.462   5.806  0.00  0.00    +0.000 A 
ATOM     23  C17 B67 A   1      27.738   1.182   6.260  0.00  0.00    +0.000 A 
ATOM     24  F17 B67 A   1      26.531   0.577   6.239  0.00  0.00    +0.000 F 
ATOM     25  C18 B67 A   1      27.891   2.493   6.715  0.00  0.00    +0.000 A 
ATOM     26  F18 B67 A   1      26.805   3.204   7.097  0.00  0.00    +0.000 F 
ATOM     27  C19 B67 A   1      29.160   3.075   6.733  0.00  0.00    +0.000 A 
ATOM     28  F19 B67 A   1      29.326   4.320   7.232  0.00  0.00    +0.000 F 
ATOM     29  C20 B67 A   1      30.270   2.356   6.275  0.00  0.00    +0.000 A 
ATOM     30  F20 B67 A   1      31.507   2.894   6.337  0.00  0.00    +0.000 F 
ATOM     31  C21 B67 A   1      30.099   1.054   5.801  0.00  0.00    +0.000 A 
ATOM     32  F21 B67 A   1      31.123   0.342   5.279  0.00  0.00    +0.000 F 
ENDBRANCH  21  22
ENDBRANCH  20  21
ENDBRANCH  17  20
ENDBRANCH   2  17
TORSDOF 7
ENDMDL
MODEL 4
REMARK VINA RESULT:      -6.0      2.128      3.754
REMARK  Name = ligand_pdbs\B67.pdb
REMARK  7 active torsions:
REMARK  status: ('A' for Active; 'I' for Inactive)
REMARK    1  A    between atoms: C7_2  and  C4_5
REMARK    2  A    between atoms: C3_7  and  N8_8
REMARK    3  A    between atoms: C6_13  and  N9_14
REMARK    4  A    between atoms: C10_15  and  C11_17
REMARK    5  A    between atoms: C11_17  and  C13_20
REMARK    6  A    between atoms: C13_20  and  O14_21
REMARK    7  A    between atoms: O14_21  and  C16_22
REMARK                            x       y       z     vdW  Elec       q    Type
REMARK                         _______ _______ _______ _____ _____    ______ ____
ROOT
ATOM      1  N9  B67 A   1      27.477   1.344   3.241  0.00  0.00    +0.000 NA
ATOM      2  C10 B67 A   1      26.764   0.220   3.304  0.00  0.00    +0.000 C 
ATOM      3  O10 B67 A   1      25.548   0.167   3.480  0.00  0.00    +0.000 OA
ENDROOT
BRANCH   1   9
ATOM      4  C4  B67 A   1      25.201   4.091   4.117  0.00  0.00    +0.000 A 
ATOM      5  C5  B67 A   1      25.705   2.809   3.896  0.00  0.00    +0.000 A 
ATOM      6  C3  B67 A   1      26.029   5.173   3.806  0.00  0.00    +0.000 A 
ATOM      7  C2  B67 A   1      27.290   4.944   3.265  0.00  0.00    +0.000 A 
ATOM      8  C1  B67 A   1      27.774   3.659   3.046  0.00  0.00    +0.000 A 
ATOM      9  C6  B67 A   1      26.973   2.569   3.375  0.00  0.00    +0.000 A 
BRANCH   4  11
ATOM     10  F1  B67 A   1      23.084   3.092   4.509  0.00  0.00    +0.000 F 
ATOM     11  C7  B67 A   1      23.748   4.241   4.605  0.00  0.00    +0.000 C 
ATOM     12  F2  B67 A   1      23.722   4.595   5.886  0.00  0.00    +0.000 F 
ATOM     13  F3  B67 A   1      23.061   5.121   3.883  0.00  0.00    +0.000 F 
ENDBRANCH   4  11
BRANCH   6  14
ATOM     14  N8  B67 A   1      25.773   6.430   4.164  0.00  0.00    +0.000 N 
ATOM     15  O2  B67 A   1      26.291   6.901   5.400  0.00  0.00    +0.000 OA
ATOM     16  O1  B67 A   1      25.069   7.348   3.340  0.00  0.00    +0.000 OA
ENDBRANCH   6  14
ENDBRANCH   1   9
BRANCH   2  17
ATOM     17  C11 B67 A   1      27.585  -1.063   3.151  0.00  0.00    +0.000 C 
ATOM     18  O11 B67 A   1      27.847  -1.300   1.765  0.00  0.00    +0.000 OA
ATOM     19  C12 B67 A   1      26.827  -2.245   3.756  0.00  0.00    +0.000 C 
BRANCH  17  20
ATOM     20  C13 B67 A   1      28.896  -0.876   3.900  0.00  0.00    +0.000 C 
BRANCH  20  21
ATOM     21  O14 B67 A   1      28.720  -0.791   5.326  0.00  0.00    +0.000 OA
BRANCH  21  22
ATOM     22  C16 B67 A   1      28.860   0.484   5.787  0.00  0.00    +0.000 A 
ATOM     23  C17 B67 A   1      30.120   1.076   5.838  0.00  0.00    +0.000 A 
ATOM     24  F17 B67 A   1      31.177   0.362   5.396  0.00  0.00    +0.000 F 
ATOM     25  C18 B67 A   1      30.270   2.371   6.339  0.00  0.00    +0.000 A 
ATOM     26  F18 B67 A   1      31.505   2.914   6.439  0.00  0.00    +0.000 F 
ATOM     27  C19 B67 A   1      29.148   3.080   6.771  0.00  0.00    +0.000 A 
ATOM     28  F19 B67 A   1      29.277   4.356   7.198  0.00  0.00    +0.000 F 
ATOM     29  C20 B67 A   1      27.881   2.487   6.725  0.00  0.00    +0.000 A 
ATOM     30  F20 B67 A   1      26.785   3.185   7.094  0.00  0.00    +0.000 F 
ATOM     31  C21 B67 A   1      27.748   1.183   6.244  0.00  0.00    +0.000 A 
ATOM     32  F21 B67 A   1      26.561   0.537   6.246  0.00  0.00    +0.000 F 
ENDBRANCH  21  22
ENDBRANCH  20  21
ENDBRANCH  17  20
ENDBRANCH   2  17
TORSDOF 7
ENDMDL
MODEL 5
REMARK VINA RESULT:      -5.6      1.613      2.085
REMARK  Name = ligand_pdbs\B67.pdb
REMARK  7 active torsions:
REMARK  status: ('A' for Active; 'I' for Inactive)
REMARK    1  A    between atoms: C7_2  and  C4_5
REMARK    2  A    between atoms: C3_7  and  N8_8
REMARK    3  A    between atoms: C6_13  and  N9_14
REMARK    4  A    between atoms: C10_15  and  C11_17
REMARK    5  A    between atoms: C11_17  and  C13_20
REMARK    6  A    between atoms: C13_20  and  O14_21
REMARK    7  A    between atoms: O14_21  and  C16_22
REMARK                            x       y       z     vdW  Elec       q    Type
REMARK                         _______ _______ _______ _____ _____    ______ ____
ROOT
ATOM      1  N9  B67 A   1      28.803   3.411   5.263  0.00  0.00    +0.000 NA
ATOM      2  C10 B67 A   1      28.635   2.323   6.013  0.00  0.00    +0.000 C 
ATOM      3  O10 B67 A   1      27.569   1.974   6.518  0.00  0.00    +0.000 OA
ENDROOT
BRANCH   1   9
ATOM      4  C4  B67 A   1      25.474   4.866   4.722  0.00  0.00    +0.000 A 
ATOM      5  C5  B67 A   1      26.493   3.941   4.951  0.00  0.00    +0.000 A 
ATOM      6  C3  B67 A   1      25.845   6.196   4.514  0.00  0.00    +0.000 A 
ATOM      7  C2  B67 A   1      27.192   6.545   4.507  0.00  0.00    +0.000 A 
ATOM      8  C1  B67 A   1      28.194   5.609   4.731  0.00  0.00    +0.000 A 
ATOM      9  C6  B67 A   1      27.842   4.283   4.966  0.00  0.00    +0.000 A 
BRANCH   4  11
ATOM     10  F1  B67 A   1      23.972   3.118   4.152  0.00  0.00    +0.000 F 
ATOM     11  C7  B67 A   1      24.022   4.359   4.630  0.00  0.00    +0.000 C 
ATOM     12  F2  B67 A   1      23.462   4.331   5.835  0.00  0.00    +0.000 F 
ATOM     13  F3  B67 A   1      23.282   5.097   3.808  0.00  0.00    +0.000 F 
ENDBRANCH   4  11
BRANCH   6  14
ATOM     14  N8  B67 A   1      24.984   7.214   4.503  0.00  0.00    +0.000 N 
ATOM     15  O2  B67 A   1      24.778   7.939   5.706  0.00  0.00    +0.000 OA
ATOM     16  O1  B67 A   1      24.315   7.657   3.331  0.00  0.00    +0.000 OA
ENDBRANCH   6  14
ENDBRANCH   1   9
BRANCH   2  17
ATOM     17  C11 B67 A   1      29.906   1.499   6.232  0.00  0.00    +0.000 C 
ATOM     18  O11 B67 A   1      29.581   0.296   6.935  0.00  0.00    +0.000 OA
ATOM     19  C12 B67 A   1      30.929   2.315   7.025  0.00  0.00    +0.000 C 
BRANCH  17  20
ATOM     20  C13 B67 A   1      30.490   1.160   4.869  0.00  0.00    +0.000 C 
BRANCH  20  21
ATOM     21  O14 B67 A   1      29.516   1.221   3.811  0.00  0.00    +0.000 OA
BRANCH  21  22
ATOM     22  C16 B67 A   1      28.714   0.119   3.785  0.00  0.00    +0.000 A 
ATOM     23  C17 B67 A   1      29.267  -1.155   3.899  0.00  0.00    +0.000 A 
ATOM     24  F17 B67 A   1      30.604  -1.255   4.059  0.00  0.00    +0.000 F 
ATOM     25  C18 B67 A   1      28.450  -2.285   3.842  0.00  0.00    +0.000 A 
ATOM     26  F18 B67 A   1      29.004  -3.518   3.893  0.00  0.00    +0.000 F 
ATOM     27  C19 B67 A   1      27.070  -2.135   3.690  0.00  0.00    +0.000 A 
ATOM     28  F19 B67 A   1      26.267  -3.222   3.699  0.00  0.00    +0.000 F 
ATOM     29  C20 B67 A   1      26.511  -0.857   3.573  0.00  0.00    +0.000 A 
ATOM     30  F20 B67 A   1      25.173  -0.702   3.477  0.00  0.00    +0.000 F 
ATOM     31  C21 B67 A   1      27.341   0.264   3.608  0.00  0.00    +0.000 A 
ATOM     32  F21 B67 A   1      26.864   1.515   3.425  0.00  0.00    +0.000 F 
ENDBRANCH  21  22
ENDBRANCH  20  21
ENDBRANCH  17  20
ENDBRANCH   2  17
TORSDOF 7
ENDMDL
MODEL 6
REMARK VINA RESULT:      -5.5      1.604      2.123
REMARK  Name = ligand_pdbs\B67.pdb
REMARK  7 active torsions:
REMARK  status: ('A' for Active; 'I' for Inactive)
REMARK    1  A    between atoms: C7_2  and  C4_5
REMARK    2  A    between atoms: C3_7  and  N8_8
REMARK    3  A    between atoms: C6_13  and  N9_14
REMARK    4  A    between atoms: C10_15  and  C11_17
REMARK    5  A    between atoms: C11_17  and  C13_20
REMARK    6  A    between atoms: C13_20  and  O14_21
REMARK    7  A    between atoms: O14_21  and  C16_22
REMARK                            x       y       z     vdW  Elec       q    Type
REMARK                         _______ _______ _______ _____ _____    ______ ____
ROOT
ATOM      1  N9  B67 A   1      28.832   3.404   5.244  0.00  0.00    +0.000 NA
ATOM      2  C10 B67 A   1      28.659   2.309   5.983  0.00  0.00    +0.000 C 
ATOM      3  O10 B67 A   1      27.591   1.959   6.482  0.00  0.00    +0.000 OA
ENDROOT
BRANCH   1   9
ATOM      4  C4  B67 A   1      25.508   4.884   4.742  0.00  0.00    +0.000 A 
ATOM      5  C5  B67 A   1      26.522   3.953   4.964  0.00  0.00    +0.000 A 
ATOM      6  C3  B67 A   1      25.888   6.209   4.513  0.00  0.00    +0.000 A 
ATOM      7  C2  B67 A   1      27.238   6.545   4.480  0.00  0.00    +0.000 A 
ATOM      8  C1  B67 A   1      28.235   5.602   4.698  0.00  0.00    +0.000 A 
ATOM      9  C6  B67 A   1      27.875   4.283   4.954  0.00  0.00    +0.000 A 
BRANCH   4  11
ATOM     10  F1  B67 A   1      23.978   3.157   4.183  0.00  0.00    +0.000 F 
ATOM     11  C7  B67 A   1      24.051   4.390   4.677  0.00  0.00    +0.000 C 
ATOM     12  F2  B67 A   1      23.520   4.349   5.896  0.00  0.00    +0.000 F 
ATOM     13  F3  B67 A   1      23.296   5.146   3.886  0.00  0.00    +0.000 F 
ENDBRANCH   4  11
BRANCH   6  14
ATOM     14  N8  B67 A   1      25.037   7.234   4.505  0.00  0.00    +0.000 N 
ATOM     15  O2  B67 A   1      24.447   7.615   3.270  0.00  0.00    +0.000 OA
ATOM     16  O1  B67 A   1      24.632   7.922   5.680  0.00  0.00    +0.000 OA
ENDBRANCH   6  14
ENDBRANCH   1   9
BRANCH   2  17
ATOM     17  C11 B67 A   1      29.927   1.479   6.198  0.00  0.00    +0.000 C 
ATOM     18  O11 B67 A   1      29.603   0.292   6.927  0.00  0.00    +0.000 OA
ATOM     19  C12 B67 A   1      30.968   2.301   6.960  0.00  0.00    +0.000 C 
BRANCH  17  20
ATOM     20  C13 B67 A   1      30.487   1.112   4.832  0.00  0.00    +0.000 C 
BRANCH  20  21
ATOM     21  O14 B67 A   1      29.509   1.207   3.781  0.00  0.00    +0.000 OA
BRANCH  21  22
ATOM     22  C16 B67 A   1      28.688   0.118   3.740  0.00  0.00    +0.000 A 
ATOM     23  C17 B67 A   1      27.314   0.282   3.579  0.00  0.00    +0.000 A 
ATOM     24  F17 B67 A   1      26.835   1.537   3.441  0.00  0.00    +0.000 F 
ATOM     25  C18 B67 A   1      26.469  -0.830   3.568  0.00  0.00    +0.000 A 
ATOM     26  F18 B67 A   1      25.131  -0.655   3.471  0.00  0.00    +0.000 F 
ATOM     27  C19 B67 A   1      27.009  -2.110   3.699  0.00  0.00    +0.000 A 
ATOM     28  F19 B67 A   1      26.204  -3.194   3.624  0.00  0.00    +0.000 F 
ATOM     29  C20 B67 A   1      28.388  -2.278   3.864  0.00  0.00    +0.000 A 
ATOM     30  F20 B67 A   1      28.923  -3.517   3.940  0.00  0.00    +0.000 F 
ATOM     31  C21 B67 A   1      29.220  -1.158   3.897  0.00  0.00    +0.000 A 
ATOM     32  F21 B67 A   1      30.548  -1.258   4.128  0.00  0.00    +0.000 F 
ENDBRANCH  21  22
ENDBRANCH  20  21
ENDBRANCH  17  20
ENDBRANCH   2  17
TORSDOF 7
ENDMDL
MODEL 7
REMARK VINA RESULT:      -5.3      2.104      2.673
REMARK  Name = ligand_pdbs\B67.pdb
REMARK  7 active torsions:
REMARK  status: ('A' for Active; 'I' for Inactive)
REMARK    1  A    between atoms: C7_2  and  C4_5
REMARK    2  A    between atoms: C3_7  and  N8_8
REMARK    3  A    between atoms: C6_13  and  N9_14
REMARK    4  A    between atoms: C10_15  and  C11_17
REMARK    5  A    between atoms: C11_17  and  C13_20
REMARK    6  A    between atoms: C13_20  and  O14_21
REMARK    7  A    between atoms: O14_21  and  C16_22
REMARK                            x       y       z     vdW  Elec       q    Type
REMARK                         _______ _______ _______ _____ _____    ______ ____
ROOT
ATOM      1  N9  B67 A   1      28.771   2.953   5.760  0.00  0.00    +0.000 NA
ATOM      2  C10 B67 A   1      28.839   1.721   6.265  0.00  0.00    +0.000 C 
ATOM      3  O10 B67 A   1      27.879   1.081   6.690  0.00  0.00    +0.000 OA
ENDROOT
BRANCH   1   9
ATOM      4  C4  B67 A   1      26.493   5.779   5.196  0.00  0.00    +0.000 A 
ATOM      5  C5  B67 A   1      27.658   5.035   5.384  0.00  0.00    +0.000 A 
ATOM      6  C3  B67 A   1      25.275   5.101   5.278  0.00  0.00    +0.000 A 
ATOM      7  C2  B67 A   1      25.259   3.741   5.572  0.00  0.00    +0.000 A 
ATOM      8  C1  B67 A   1      26.430   3.017   5.763  0.00  0.00    +0.000 A 
ATOM      9  C6  B67 A   1      27.654   3.670   5.660  0.00  0.00    +0.000 A 
BRANCH   4  11
ATOM     10  F1  B67 A   1      25.991   7.968   5.964  0.00  0.00    +0.000 F 
ATOM     11  C7  B67 A   1      26.612   7.301   4.995  0.00  0.00    +0.000 C 
ATOM     12  F2  B67 A   1      27.888   7.676   5.026  0.00  0.00    +0.000 F 
ATOM     13  F3  B67 A   1      26.054   7.705   3.858  0.00  0.00    +0.000 F 
ENDBRANCH   4  11
BRANCH   6  14
ATOM     14  N8  B67 A   1      24.107   5.626   4.907  0.00  0.00    +0.000 N 
ATOM     15  O2  B67 A   1      23.052   4.745   4.549  0.00  0.00    +0.000 OA
ATOM     16  O1  B67 A   1      23.840   7.020   4.919  0.00  0.00    +0.000 OA
ENDBRANCH   6  14
ENDBRANCH   1   9
BRANCH   2  17
ATOM     17  C11 B67 A   1      30.249   1.125   6.299  0.00  0.00    +0.000 C 
ATOM     18  O11 B67 A   1      30.564   0.720   7.634  0.00  0.00    +0.000 OA
ATOM     19  C12 B67 A   1      31.265   2.156   5.804  0.00  0.00    +0.000 C 
BRANCH  17  20
ATOM     20  C13 B67 A   1      30.273  -0.081   5.372  0.00  0.00    +0.000 C 
BRANCH  20  21
ATOM     21  O14 B67 A   1      29.966   0.254   4.007  0.00  0.00    +0.000 OA
BRANCH  21  22
ATOM     22  C16 B67 A   1      28.636   0.131   3.733  0.00  0.00    +0.000 A 
ATOM     23  C17 B67 A   1      27.983  -1.080   3.953  0.00  0.00    +0.000 A 
ATOM     24  F17 B67 A   1      28.699  -2.104   4.464  0.00  0.00    +0.000 F 
ATOM     25  C18 B67 A   1      26.628  -1.216   3.644  0.00  0.00    +0.000 A 
ATOM     26  F18 B67 A   1      26.020  -2.413   3.805  0.00  0.00    +0.000 F 
ATOM     27  C19 B67 A   1      25.923  -0.125   3.131  0.00  0.00    +0.000 A 
ATOM     28  F19 B67 A   1      24.597  -0.231   2.890  0.00  0.00    +0.000 F 
ATOM     29  C20 B67 A   1      26.576   1.091   2.906  0.00  0.00    +0.000 A 
ATOM     30  F20 B67 A   1      25.889   2.164   2.458  0.00  0.00    +0.000 F 
ATOM     31  C21 B67 A   1      27.936   1.208   3.197  0.00  0.00    +0.000 A 
ATOM     32  F21 B67 A   1      28.632   2.335   2.930  0.00  0.00    +0.000 F 
ENDBRANCH  21  22
ENDBRANCH  20  21
ENDBRANCH  17  20
ENDBRANCH   2  17
TORSDOF 7
ENDMDL
MODEL 8
REMARK VINA RESULT:      -5.3      2.102      2.516
REMARK  Name = ligand_pdbs\B67.pdb
REMARK  7 active torsions:
REMARK  status: ('A' for Active; 'I' for Inactive)
REMARK    1  A    between atoms: C7_2  and  C4_5
REMARK    2  A    between atoms: C3_7  and  N8_8
REMARK    3  A    between atoms: C6_13  and  N9_14
REMARK    4  A    between atoms: C10_15  and  C11_17
REMARK    5  A    between atoms: C11_17  and  C13_20
REMARK    6  A    between atoms: C13_20  and  O14_21
REMARK    7  A    between atoms: O14_21  and  C16_22
REMARK                            x       y       z     vdW  Elec       q    Type
REMARK                         _______ _______ _______ _____ _____    ______ ____
ROOT
ATOM      1  N9  B67 A   1      28.757   2.937   5.737  0.00  0.00    +0.000 NA
ATOM      2  C10 B67 A   1      28.824   1.708   6.247  0.00  0.00    +0.000 C 
ATOM      3  O10 B67 A   1      27.864   1.074   6.682  0.00  0.00    +0.000 OA
ENDROOT
BRANCH   1   9
ATOM      4  C4  B67 A   1      26.488   5.774   5.192  0.00  0.00    +0.000 A 
ATOM      5  C5  B67 A   1      27.651   5.026   5.377  0.00  0.00    +0.000 A 
ATOM      6  C3  B67 A   1      25.267   5.099   5.264  0.00  0.00    +0.000 A 
ATOM      7  C2  B67 A   1      25.247   3.736   5.547  0.00  0.00    +0.000 A 
ATOM      8  C1  B67 A   1      26.416   3.008   5.734  0.00  0.00    +0.000 A 
ATOM      9  C6  B67 A   1      27.642   3.658   5.639  0.00  0.00    +0.000 A 
BRANCH   4  11
ATOM     10  F1  B67 A   1      25.979   7.957   5.972  0.00  0.00    +0.000 F 
ATOM     11  C7  B67 A   1      26.611   7.298   5.005  0.00  0.00    +0.000 C 
ATOM     12  F2  B67 A   1      27.887   7.671   5.055  0.00  0.00    +0.000 F 
ATOM     13  F3  B67 A   1      26.067   7.712   3.865  0.00  0.00    +0.000 F 
ENDBRANCH   4  11
BRANCH   6  14
ATOM     14  N8  B67 A   1      24.102   5.630   4.895  0.00  0.00    +0.000 N 
ATOM     15  O2  B67 A   1      23.048   4.755   4.522  0.00  0.00    +0.000 OA
ATOM     16  O1  B67 A   1      23.837   7.024   4.925  0.00  0.00    +0.000 OA
ENDBRANCH   6  14
ENDBRANCH   1   9
BRANCH   2  17
ATOM     17  C11 B67 A   1      30.232   1.107   6.275  0.00  0.00    +0.000 C 
ATOM     18  O11 B67 A   1      30.552   0.702   7.609  0.00  0.00    +0.000 OA
ATOM     19  C12 B67 A   1      31.249   2.134   5.774  0.00  0.00    +0.000 C 
BRANCH  17  20
ATOM     20  C13 B67 A   1      30.247  -0.101   5.350  0.00  0.00    +0.000 C 
BRANCH  20  21
ATOM     21  O14 B67 A   1      29.955   0.237   3.982  0.00  0.00    +0.000 OA
BRANCH  21  22
ATOM     22  C16 B67 A   1      28.626   0.129   3.696  0.00  0.00    +0.000 A 
ATOM     23  C17 B67 A   1      27.933   1.215   3.167  0.00  0.00    +0.000 A 
ATOM     24  F17 B67 A   1      28.620   2.352   2.927  0.00  0.00    +0.000 F 
ATOM     25  C18 B67 A   1      26.566   1.117   2.902  0.00  0.00    +0.000 A 
ATOM     26  F18 B67 A   1      25.890   2.196   2.445  0.00  0.00    +0.000 F 
ATOM     27  C19 B67 A   1      25.898  -0.084   3.151  0.00  0.00    +0.000 A 
ATOM     28  F19 B67 A   1      24.589  -0.206   2.837  0.00  0.00    +0.000 F 
ATOM     29  C20 B67 A   1      26.590  -1.176   3.685  0.00  0.00    +0.000 A 
ATOM     30  F20 B67 A   1      25.962  -2.355   3.881  0.00  0.00    +0.000 F 
ATOM     31  C21 B67 A   1      27.952  -1.057   3.968  0.00  0.00    +0.000 A 
ATOM     32  F21 B67 A   1      28.652  -2.054   4.552  0.00  0.00    +0.000 F 
ENDBRANCH  21  22
ENDBRANCH  20  21
ENDBRANCH  17  20
ENDBRANCH   2  17
TORSDOF 7
ENDMDL
MODEL 9
REMARK VINA RESULT:      -5.2      2.794      4.480
REMARK  Name = ligand_pdbs\B67.pdb
REMARK  7 active torsions:
REMARK  status: ('A' for Active; 'I' for Inactive)
REMARK    1  A    between atoms: C7_2  and  C4_5
REMARK    2  A    between atoms: C3_7  and  N8_8
REMARK    3  A    between atoms: C6_13  and  N9_14
REMARK    4  A    between atoms: C10_15  and  C11_17
REMARK    5  A    between atoms: C11_17  and  C13_20
REMARK    6  A    between atoms: C13_20  and  O14_21
REMARK    7  A    between atoms: O14_21  and  C16_22
REMARK                            x       y       z     vdW  Elec       q    Type
REMARK                         _______ _______ _______ _____ _____    ______ ____
ROOT
ATOM      1  N9  B67 A   1      24.850   3.090   3.938  0.00  0.00    +0.000 NA
ATOM      2  C10 B67 A   1      25.774   2.430   3.242  0.00  0.00    +0.000 C 
ATOM      3  O10 B67 A   1      26.865   2.889   2.908  0.00  0.00    +0.000 OA
ENDROOT
BRANCH   1   9
ATOM      4  C4  B67 A   1      26.344   6.235   5.109  0.00  0.00    +0.000 A 
ATOM      5  C5  B67 A   1      26.192   4.897   4.745  0.00  0.00    +0.000 A 
ATOM      6  C3  B67 A   1      25.210   7.049   5.064  0.00  0.00    +0.000 A 
ATOM      7  C2  B67 A   1      23.982   6.505   4.698  0.00  0.00    +0.000 A 
ATOM      8  C1  B67 A   1      23.848   5.167   4.345  0.00  0.00    +0.000 A 
ATOM      9  C6  B67 A   1      24.972   4.347   4.359  0.00  0.00    +0.000 A 
BRANCH   4  11
ATOM     10  F1  B67 A   1      27.606   7.405   6.744  0.00  0.00    +0.000 F 
ATOM     11  C7  B67 A   1      27.719   6.712   5.614  0.00  0.00    +0.000 C 
ATOM     12  F2  B67 A   1      28.504   5.672   5.877  0.00  0.00    +0.000 F 
ATOM     13  F3  B67 A   1      28.321   7.522   4.749  0.00  0.00    +0.000 F 
ENDBRANCH   4  11
BRANCH   6  14
ATOM     14  N8  B67 A   1      25.245   8.377   5.168  0.00  0.00    +0.000 N 
ATOM     15  O2  B67 A   1      25.844   9.123   4.118  0.00  0.00    +0.000 OA
ATOM     16  O1  B67 A   1      24.649   9.092   6.241  0.00  0.00    +0.000 OA
ENDBRANCH   6  14
ENDBRANCH   1   9
BRANCH   2  17
ATOM     17  C11 B67 A   1      25.378   1.004   2.850  0.00  0.00    +0.000 C 
ATOM     18  O11 B67 A   1      25.264   0.913   1.428  0.00  0.00    +0.000 OA
ATOM     19  C12 B67 A   1      24.050   0.630   3.512  0.00  0.00    +0.000 C 
BRANCH  17  20
ATOM     20  C13 B67 A   1      26.463   0.060   3.345  0.00  0.00    +0.000 C 
BRANCH  20  21
ATOM     21  O14 B67 A   1      26.554   0.011   4.779  0.00  0.00    +0.000 OA
BRANCH  21  22
ATOM     22  C16 B67 A   1      27.802   0.327   5.229  0.00  0.00    +0.000 A 
ATOM     23  C17 B67 A   1      28.867  -0.544   5.011  0.00  0.00    +0.000 A 
ATOM     24  F17 B67 A   1      28.627  -1.683   4.327  0.00  0.00    +0.000 F 
ATOM     25  C18 B67 A   1      30.139  -0.236   5.497  0.00  0.00    +0.000 A 
ATOM     26  F18 B67 A   1      31.153  -1.117   5.332  0.00  0.00    +0.000 F 
ATOM     27  C19 B67 A   1      30.345   0.961   6.186  0.00  0.00    +0.000 A 
ATOM     28  F19 B67 A   1      31.587   1.295   6.603  0.00  0.00    +0.000 F 
ATOM     29  C20 B67 A   1      29.278   1.837   6.409  0.00  0.00    +0.000 A 
ATOM     30  F20 B67 A   1      29.480   3.019   7.030  0.00  0.00    +0.000 F 
ATOM     31  C21 B67 A   1      28.006   1.507   5.939  0.00  0.00    +0.000 A 
ATOM     32  F21 B67 A   1      26.926   2.279   6.190  0.00  0.00    +0.000 F 
ENDBRANCH  21  22
ENDBRANCH  20  21
ENDBRANCH  17  20
ENDBRANCH   2  17
TORSDOF 7
ENDMDL
