MODEL 1
REMARK VINA RESULT:      -6.1      0.000      0.000
REMARK  Name = ligand_pdbs\B68.pdb
REMARK  8 active torsions:
REMARK  status: ('A' for Active; 'I' for Inactive)
REMARK    1  A    between atoms: N22_4  and  C19_5
REMARK    2  A    between atoms: C16_10  and  O14_11
REMARK    3  A    between atoms: O14_11  and  C13_12
REMARK    4  A    between atoms: C13_12  and  C11_13
REMARK    5  A    between atoms: C11_13  and  C10_16
REMARK    6  A    between atoms: N9_18  and  C6_19
REMARK    7  A    between atoms: C3_23  and  N8_24
REMARK    8  A    between atoms: C4_27  and  C7_28
REMARK                            x       y       z     vdW  Elec       q    Type
REMARK                         _______ _______ _______ _____ _____    ______ ____
ROOT
ATOM      1  C10 B68 A   1      25.713   5.626   4.994  0.00  0.00    +0.000 C 
ATOM      2  O10 B68 A   1      24.621   5.087   5.166  0.00  0.00    +0.000 OA
ATOM      3  N9  B68 A   1      26.871   4.980   4.860  0.00  0.00    +0.000 NA
ENDROOT
BRANCH   3   4
ATOM      4  C6  B68 A   1      27.030   3.658   4.915  0.00  0.00    +0.000 A 
ATOM      5  C5  B68 A   1      26.589   2.798   3.911  0.00  0.00    +0.000 A 
ATOM      6  C1  B68 A   1      27.702   3.119   6.005  0.00  0.00    +0.000 A 
ATOM      7  C2  B68 A   1      27.929   1.748   6.059  0.00  0.00    +0.000 A 
ATOM      8  C3  B68 A   1      27.500   0.898   5.043  0.00  0.00    +0.000 A 
ATOM      9  C4  B68 A   1      26.803   1.420   3.947  0.00  0.00    +0.000 A 
BRANCH   9  10
ATOM     10  C7  B68 A   1      26.238   0.556   2.804  0.00  0.00    +0.000 C 
ATOM     11  F2  B68 A   1      25.272  -0.240   3.252  0.00  0.00    +0.000 F 
ATOM     12  F1  B68 A   1      25.747   1.277   1.800  0.00  0.00    +0.000 F 
ATOM     13  F3  B68 A   1      27.167  -0.232   2.269  0.00  0.00    +0.000 F 
ENDBRANCH   9  10
BRANCH   8  14
ATOM     14  N8  B68 A   1      27.815  -0.390   5.185  0.00  0.00    +0.000 N 
ATOM     15  O1  B68 A   1      26.877  -1.380   5.578  0.00  0.00    +0.000 OA
ATOM     16  O2  B68 A   1      29.118  -0.832   4.832  0.00  0.00    +0.000 OA
ENDBRANCH   8  14
ENDBRANCH   3   4
BRANCH   1  17
ATOM     17  C11 B68 A   1      25.818   7.147   4.882  0.00  0.00    +0.000 C 
ATOM     18  O11 B68 A   1      25.353   7.553   3.592  0.00  0.00    +0.000 OA
ATOM     19  C12 B68 A   1      27.267   7.592   5.087  0.00  0.00    +0.000 C 
BRANCH  17  20
ATOM     20  C13 B68 A   1      24.938   7.770   5.955  0.00  0.00    +0.000 C 
BRANCH  20  21
ATOM     21  O14 B68 A   1      24.760   9.172   5.693  0.00  0.00    +0.000 OA
BRANCH  21  27
ATOM     22  C19 B68 A   1      24.153  11.400   9.153  0.00  0.00    +0.000 A 
ATOM     23  C18 B68 A   1      24.889  10.217   9.198  0.00  0.00    +0.000 A 
ATOM     24  C17 B68 A   1      25.081   9.461   8.045  0.00  0.00    +0.000 A 
ATOM     25  C20 B68 A   1      23.613  11.816   7.939  0.00  0.00    +0.000 A 
ATOM     26  C21 B68 A   1      23.801  11.061   6.785  0.00  0.00    +0.000 A 
ATOM     27  C16 B68 A   1      24.536   9.879   6.835  0.00  0.00    +0.000 A 
BRANCH  22  31
ATOM     28  C24 B68 A   1      23.087  12.802  12.399  0.00  0.00    +0.000 C 
ATOM     29  C23 B68 A   1      23.202  11.760  11.285  0.00  0.00    +0.000 C 
ATOM     30  O23 B68 A   1      22.670  10.656  11.403  0.00  0.00    +0.000 OA
ATOM     31  N22 B68 A   1      23.930  12.142  10.238  0.00  0.00    +0.000 NA
ENDBRANCH  22  31
ENDBRANCH  21  27
ENDBRANCH  20  21
ENDBRANCH  17  20
ENDBRANCH   1  17
TORSDOF 8
ENDMDL
MODEL 2
REMARK VINA RESULT:      -6.1      2.070      2.603
REMARK  Name = ligand_pdbs\B68.pdb
REMARK  8 active torsions:
REMARK  status: ('A' for Active; 'I' for Inactive)
REMARK    1  A    between atoms: N22_4  and  C19_5
REMARK    2  A    between atoms: C16_10  and  O14_11
REMARK    3  A    between atoms: O14_11  and  C13_12
REMARK    4  A    between atoms: C13_12  and  C11_13
REMARK    5  A    between atoms: C11_13  and  C10_16
REMARK    6  A    between atoms: N9_18  and  C6_19
REMARK    7  A    between atoms: C3_23  and  N8_24
REMARK    8  A    between atoms: C4_27  and  C7_28
REMARK                            x       y       z     vdW  Elec       q    Type
REMARK                         _______ _______ _______ _____ _____    ______ ____
ROOT
ATOM      1  C10 B68 A   1      26.329   5.874   4.701  0.00  0.00    +0.000 C 
ATOM      2  O10 B68 A   1      27.463   6.190   5.057  0.00  0.00    +0.000 OA
ATOM      3  N9  B68 A   1      25.962   4.653   4.315  0.00  0.00    +0.000 NA
ENDROOT
BRANCH   3   4
ATOM      4  C6  B68 A   1      26.766   3.593   4.232  0.00  0.00    +0.000 A 
ATOM      5  C5  B68 A   1      27.836   3.382   5.101  0.00  0.00    +0.000 A 
ATOM      6  C1  B68 A   1      26.500   2.638   3.259  0.00  0.00    +0.000 A 
ATOM      7  C2  B68 A   1      27.292   1.496   3.187  0.00  0.00    +0.000 A 
ATOM      8  C3  B68 A   1      28.348   1.285   4.070  0.00  0.00    +0.000 A 
ATOM      9  C4  B68 A   1      28.644   2.246   5.043  0.00  0.00    +0.000 A 
BRANCH   9  10
ATOM     10  C7  B68 A   1      29.825   2.132   6.026  0.00  0.00    +0.000 C 
ATOM     11  F2  B68 A   1      30.983   2.184   5.374  0.00  0.00    +0.000 F 
ATOM     12  F1  B68 A   1      29.828   3.088   6.950  0.00  0.00    +0.000 F 
ATOM     13  F3  B68 A   1      29.810   0.979   6.689  0.00  0.00    +0.000 F 
ENDBRANCH   9  10
BRANCH   8  14
ATOM     14  N8  B68 A   1      29.006   0.133   3.931  0.00  0.00    +0.000 N 
ATOM     15  O1  B68 A   1      28.683  -1.039   4.665  0.00  0.00    +0.000 OA
ATOM     16  O2  B68 A   1      30.013   0.021   2.936  0.00  0.00    +0.000 OA
ENDBRANCH   8  14
ENDBRANCH   3   4
BRANCH   1  17
ATOM     17  C11 B68 A   1      25.199   6.903   4.710  0.00  0.00    +0.000 C 
ATOM     18  O11 B68 A   1      23.965   6.239   4.996  0.00  0.00    +0.000 OA
ATOM     19  C12 B68 A   1      25.118   7.610   3.356  0.00  0.00    +0.000 C 
BRANCH  17  20
ATOM     20  C13 B68 A   1      25.487   7.925   5.799  0.00  0.00    +0.000 C 
BRANCH  20  21
ATOM     21  O14 B68 A   1      24.644   9.076   5.631  0.00  0.00    +0.000 OA
BRANCH  21  27
ATOM     22  C19 B68 A   1      24.284  11.288   9.135  0.00  0.00    +0.000 A 
ATOM     23  C18 B68 A   1      25.041  10.118   9.117  0.00  0.00    +0.000 A 
ATOM     24  C17 B68 A   1      25.151   9.367   7.950  0.00  0.00    +0.000 A 
ATOM     25  C20 B68 A   1      23.640  11.697   7.971  0.00  0.00    +0.000 A 
ATOM     26  C21 B68 A   1      23.746  10.947   6.803  0.00  0.00    +0.000 A 
ATOM     27  C16 B68 A   1      24.502   9.777   6.790  0.00  0.00    +0.000 A 
BRANCH  22  31
ATOM     28  C24 B68 A   1      23.310  12.759  12.380  0.00  0.00    +0.000 C 
ATOM     29  C23 B68 A   1      23.297  11.747  11.232  0.00  0.00    +0.000 C 
ATOM     30  O23 B68 A   1      22.571  10.755  11.280  0.00  0.00    +0.000 OA
ATOM     31  N22 B68 A   1      24.138  12.024  10.237  0.00  0.00    +0.000 NA
ENDBRANCH  22  31
ENDBRANCH  21  27
ENDBRANCH  20  21
ENDBRANCH  17  20
ENDBRANCH   1  17
TORSDOF 8
ENDMDL
MODEL 3
REMARK VINA RESULT:      -5.7      4.105      7.330
REMARK  Name = ligand_pdbs\B68.pdb
REMARK  8 active torsions:
REMARK  status: ('A' for Active; 'I' for Inactive)
REMARK    1  A    between atoms: N22_4  and  C19_5
REMARK    2  A    between atoms: C16_10  and  O14_11
REMARK    3  A    between atoms: O14_11  and  C13_12
REMARK    4  A    between atoms: C13_12  and  C11_13
REMARK    5  A    between atoms: C11_13  and  C10_16
REMARK    6  A    between atoms: N9_18  and  C6_19
REMARK    7  A    between atoms: C3_23  and  N8_24
REMARK    8  A    between atoms: C4_27  and  C7_28
REMARK                            x       y       z     vdW  Elec       q    Type
REMARK                         _______ _______ _______ _____ _____    ______ ____
ROOT
ATOM      1  C10 B68 A   1      26.998   5.444   4.555  0.00  0.00    +0.000 C 
ATOM      2  O10 B68 A   1      27.944   5.697   3.811  0.00  0.00    +0.000 OA
ATOM      3  N9  B68 A   1      26.959   4.440   5.429  0.00  0.00    +0.000 NA
ENDROOT
BRANCH   3   4
ATOM      4  C6  B68 A   1      27.925   3.541   5.617  0.00  0.00    +0.000 A 
ATOM      5  C5  B68 A   1      28.254   2.571   4.671  0.00  0.00    +0.000 A 
ATOM      6  C1  B68 A   1      28.662   3.600   6.793  0.00  0.00    +0.000 A 
ATOM      7  C2  B68 A   1      29.711   2.707   6.990  0.00  0.00    +0.000 A 
ATOM      8  C3  B68 A   1      30.043   1.753   6.032  0.00  0.00    +0.000 A 
ATOM      9  C4  B68 A   1      29.299   1.664   4.850  0.00  0.00    +0.000 A 
BRANCH   9  10
ATOM     10  C7  B68 A   1      29.552   0.606   3.759  0.00  0.00    +0.000 C 
ATOM     11  F2  B68 A   1      30.644   0.904   3.062  0.00  0.00    +0.000 F 
ATOM     12  F1  B68 A   1      29.696  -0.622   4.248  0.00  0.00    +0.000 F 
ATOM     13  F3  B68 A   1      28.548   0.540   2.889  0.00  0.00    +0.000 F 
ENDBRANCH   9  10
BRANCH   8  14
ATOM     14  N8  B68 A   1      31.095   0.983   6.314  0.00  0.00    +0.000 N 
ATOM     15  O1  B68 A   1      32.438   1.429   6.192  0.00  0.00    +0.000 OA
ATOM     16  O2  B68 A   1      30.887  -0.311   6.859  0.00  0.00    +0.000 OA
ENDBRANCH   8  14
ENDBRANCH   3   4
BRANCH   1  17
ATOM     17  C11 B68 A   1      25.752   6.331   4.552  0.00  0.00    +0.000 C 
ATOM     18  O11 B68 A   1      25.459   6.720   3.208  0.00  0.00    +0.000 OA
ATOM     19  C12 B68 A   1      25.984   7.568   5.423  0.00  0.00    +0.000 C 
BRANCH  17  20
ATOM     20  C13 B68 A   1      24.588   5.528   5.111  0.00  0.00    +0.000 C 
BRANCH  20  21
ATOM     21  O14 B68 A   1      23.979   4.750   4.068  0.00  0.00    +0.000 OA
BRANCH  21  27
ATOM     22  C19 B68 A   1      25.297   0.807   3.964  0.00  0.00    +0.000 A 
ATOM     23  C18 B68 A   1      24.639   1.299   5.090  0.00  0.00    +0.000 A 
ATOM     24  C17 B68 A   1      24.210   2.623   5.134  0.00  0.00    +0.000 A 
ATOM     25  C20 B68 A   1      25.519   1.655   2.884  0.00  0.00    +0.000 A 
ATOM     26  C21 B68 A   1      25.094   2.980   2.926  0.00  0.00    +0.000 A 
ATOM     27  C16 B68 A   1      24.438   3.469   4.053  0.00  0.00    +0.000 A 
BRANCH  22  31
ATOM     28  C24 B68 A   1      26.929  -2.470   4.455  0.00  0.00    +0.000 C 
ATOM     29  C23 B68 A   1      26.557  -1.021   4.774  0.00  0.00    +0.000 C 
ATOM     30  O23 B68 A   1      26.979  -0.476   5.794  0.00  0.00    +0.000 OA
ATOM     31  N22 B68 A   1      25.740  -0.449   3.891  0.00  0.00    +0.000 NA
ENDBRANCH  22  31
ENDBRANCH  21  27
ENDBRANCH  20  21
ENDBRANCH  17  20
ENDBRANCH   1  17
TORSDOF 8
ENDMDL
MODEL 4
REMARK VINA RESULT:      -5.5      5.062      8.483
REMARK  Name = ligand_pdbs\B68.pdb
REMARK  8 active torsions:
REMARK  status: ('A' for Active; 'I' for Inactive)
REMARK    1  A    between atoms: N22_4  and  C19_5
REMARK    2  A    between atoms: C16_10  and  O14_11
REMARK    3  A    between atoms: O14_11  and  C13_12
REMARK    4  A    between atoms: C13_12  and  C11_13
REMARK    5  A    between atoms: C11_13  and  C10_16
REMARK    6  A    between atoms: N9_18  and  C6_19
REMARK    7  A    between atoms: C3_23  and  N8_24
REMARK    8  A    between atoms: C4_27  and  C7_28
REMARK                            x       y       z     vdW  Elec       q    Type
REMARK                         _______ _______ _______ _____ _____    ______ ____
ROOT
ATOM      1  C10 B68 A   1      26.911  -0.772   3.537  0.00  0.00    +0.000 C 
ATOM      2  O10 B68 A   1      26.881  -0.289   2.406  0.00  0.00    +0.000 OA
ATOM      3  N9  B68 A   1      26.297  -0.261   4.603  0.00  0.00    +0.000 NA
ENDROOT
BRANCH   3   4
ATOM      4  C6  B68 A   1      25.577   0.860   4.617  0.00  0.00    +0.000 A 
ATOM      5  C5  B68 A   1      25.661   1.803   5.641  0.00  0.00    +0.000 A 
ATOM      6  C1  B68 A   1      24.736   1.118   3.543  0.00  0.00    +0.000 A 
ATOM      7  C2  B68 A   1      24.015   2.308   3.508  0.00  0.00    +0.000 A 
ATOM      8  C3  B68 A   1      24.118   3.252   4.526  0.00  0.00    +0.000 A 
ATOM      9  C4  B68 A   1      24.944   3.000   5.627  0.00  0.00    +0.000 A 
BRANCH   9  10
ATOM     10  C7  B68 A   1      25.080   3.953   6.830  0.00  0.00    +0.000 C 
ATOM     11  F2  B68 A   1      26.225   3.739   7.470  0.00  0.00    +0.000 F 
ATOM     12  F1  B68 A   1      25.033   5.237   6.484  0.00  0.00    +0.000 F 
ATOM     13  F3  B68 A   1      24.105   3.776   7.717  0.00  0.00    +0.000 F 
ENDBRANCH   9  10
BRANCH   8  14
ATOM     14  N8  B68 A   1      23.414   4.372   4.360  0.00  0.00    +0.000 N 
ATOM     15  O1  B68 A   1      24.006   5.619   4.029  0.00  0.00    +0.000 OA
ATOM     16  O2  B68 A   1      21.995   4.318   4.410  0.00  0.00    +0.000 OA
ENDBRANCH   8  14
ENDBRANCH   3   4
BRANCH   1  17
ATOM     17  C11 B68 A   1      27.663  -2.077   3.802  0.00  0.00    +0.000 C 
ATOM     18  O11 B68 A   1      28.415  -2.428   2.638  0.00  0.00    +0.000 OA
ATOM     19  C12 B68 A   1      26.677  -3.193   4.152  0.00  0.00    +0.000 C 
BRANCH  17  20
ATOM     20  C13 B68 A   1      28.614  -1.855   4.969  0.00  0.00    +0.000 C 
BRANCH  20  21
ATOM     21  O14 B68 A   1      29.706  -1.015   4.563  0.00  0.00    +0.000 OA
BRANCH  21  27
ATOM     22  C19 B68 A   1      28.784   2.990   5.202  0.00  0.00    +0.000 A 
ATOM     23  C18 B68 A   1      28.949   2.504   3.906  0.00  0.00    +0.000 A 
ATOM     24  C17 B68 A   1      29.273   1.168   3.689  0.00  0.00    +0.000 A 
ATOM     25  C20 B68 A   1      28.946   2.121   6.277  0.00  0.00    +0.000 A 
ATOM     26  C21 B68 A   1      29.272   0.784   6.064  0.00  0.00    +0.000 A 
ATOM     27  C16 B68 A   1      29.438   0.304   4.767  0.00  0.00    +0.000 A 
BRANCH  22  31
ATOM     28  C24 B68 A   1      27.599   6.488   5.161  0.00  0.00    +0.000 C 
ATOM     29  C23 B68 A   1      27.781   5.057   4.651  0.00  0.00    +0.000 C 
ATOM     30  O23 B68 A   1      27.266   4.700   3.591  0.00  0.00    +0.000 OA
ATOM     31  N22 B68 A   1      28.493   4.267   5.452  0.00  0.00    +0.000 NA
ENDBRANCH  22  31
ENDBRANCH  21  27
ENDBRANCH  20  21
ENDBRANCH  17  20
ENDBRANCH   1  17
TORSDOF 8
ENDMDL
MODEL 5
REMARK VINA RESULT:      -5.1      4.949      8.358
REMARK  Name = ligand_pdbs\B68.pdb
REMARK  8 active torsions:
REMARK  status: ('A' for Active; 'I' for Inactive)
REMARK    1  A    between atoms: N22_4  and  C19_5
REMARK    2  A    between atoms: C16_10  and  O14_11
REMARK    3  A    between atoms: O14_11  and  C13_12
REMARK    4  A    between atoms: C13_12  and  C11_13
REMARK    5  A    between atoms: C11_13  and  C10_16
REMARK    6  A    between atoms: N9_18  and  C6_19
REMARK    7  A    between atoms: C3_23  and  N8_24
REMARK    8  A    between atoms: C4_27  and  C7_28
REMARK                            x       y       z     vdW  Elec       q    Type
REMARK                         _______ _______ _______ _____ _____    ______ ____
ROOT
ATOM      1  C10 B68 A   1      29.373   0.568   4.345  0.00  0.00    +0.000 C 
ATOM      2  O10 B68 A   1      29.641   1.050   3.246  0.00  0.00    +0.000 OA
ATOM      3  N9  B68 A   1      28.759   1.215   5.334  0.00  0.00    +0.000 NA
ENDROOT
BRANCH   3   4
ATOM      4  C6  B68 A   1      28.360   2.486   5.297  0.00  0.00    +0.000 A 
ATOM      5  C5  B68 A   1      27.900   3.104   4.135  0.00  0.00    +0.000 A 
ATOM      6  C1  B68 A   1      28.368   3.215   6.480  0.00  0.00    +0.000 A 
ATOM      7  C2  B68 A   1      27.905   4.527   6.478  0.00  0.00    +0.000 A 
ATOM      8  C3  B68 A   1      27.432   5.131   5.316  0.00  0.00    +0.000 A 
ATOM      9  C4  B68 A   1      27.437   4.420   4.111  0.00  0.00    +0.000 A 
BRANCH   9  10
ATOM     10  C7  B68 A   1      26.988   5.018   2.764  0.00  0.00    +0.000 C 
ATOM     11  F2  B68 A   1      26.316   4.118   2.052  0.00  0.00    +0.000 F 
ATOM     12  F1  B68 A   1      26.219   6.094   2.903  0.00  0.00    +0.000 F 
ATOM     13  F3  B68 A   1      28.023   5.400   2.021  0.00  0.00    +0.000 F 
ENDBRANCH   9  10
BRANCH   8  14
ATOM     14  N8  B68 A   1      26.974   6.376   5.449  0.00  0.00    +0.000 N 
ATOM     15  O1  B68 A   1      25.608   6.679   5.696  0.00  0.00    +0.000 OA
ATOM     16  O2  B68 A   1      27.891   7.460   5.448  0.00  0.00    +0.000 OA
ENDBRANCH   8  14
ENDBRANCH   3   4
BRANCH   1  17
ATOM     17  C11 B68 A   1      29.714  -0.890   4.656  0.00  0.00    +0.000 C 
ATOM     18  O11 B68 A   1      30.557  -0.937   5.809  0.00  0.00    +0.000 OA
ATOM     19  C12 B68 A   1      30.417  -1.533   3.459  0.00  0.00    +0.000 C 
BRANCH  17  20
ATOM     20  C13 B68 A   1      28.420  -1.635   4.945  0.00  0.00    +0.000 C 
BRANCH  20  21
ATOM     21  O14 B68 A   1      27.593  -1.664   3.771  0.00  0.00    +0.000 OA
BRANCH  21  27
ATOM     22  C19 B68 A   1      24.885   1.492   3.760  0.00  0.00    +0.000 A 
ATOM     23  C18 B68 A   1      25.114   0.766   4.928  0.00  0.00    +0.000 A 
ATOM     24  C17 B68 A   1      26.008  -0.301   4.931  0.00  0.00    +0.000 A 
ATOM     25  C20 B68 A   1      25.562   1.138   2.598  0.00  0.00    +0.000 A 
ATOM     26  C21 B68 A   1      26.456   0.070   2.597  0.00  0.00    +0.000 A 
ATOM     27  C16 B68 A   1      26.680  -0.654   3.765  0.00  0.00    +0.000 A 
BRANCH  22  31
ATOM     28  C24 B68 A   1      22.822   4.497   4.359  0.00  0.00    +0.000 C 
ATOM     29  C23 B68 A   1      23.898   3.448   4.646  0.00  0.00    +0.000 C 
ATOM     30  O23 B68 A   1      24.591   3.523   5.660  0.00  0.00    +0.000 OA
ATOM     31  N22 B68 A   1      24.021   2.508   3.711  0.00  0.00    +0.000 NA
ENDBRANCH  22  31
ENDBRANCH  21  27
ENDBRANCH  20  21
ENDBRANCH  17  20
ENDBRANCH   1  17
TORSDOF 8
ENDMDL
MODEL 6
REMARK VINA RESULT:      -4.7      4.653      6.533
REMARK  Name = ligand_pdbs\B68.pdb
REMARK  8 active torsions:
REMARK  status: ('A' for Active; 'I' for Inactive)
REMARK    1  A    between atoms: N22_4  and  C19_5
REMARK    2  A    between atoms: C16_10  and  O14_11
REMARK    3  A    between atoms: O14_11  and  C13_12
REMARK    4  A    between atoms: C13_12  and  C11_13
REMARK    5  A    between atoms: C11_13  and  C10_16
REMARK    6  A    between atoms: N9_18  and  C6_19
REMARK    7  A    between atoms: C3_23  and  N8_24
REMARK    8  A    between atoms: C4_27  and  C7_28
REMARK                            x       y       z     vdW  Elec       q    Type
REMARK                         _______ _______ _______ _____ _____    ______ ____
ROOT
ATOM      1  C10 B68 A   1      24.815   3.523   4.671  0.00  0.00    +0.000 C 
ATOM      2  O10 B68 A   1      24.565   2.914   5.710  0.00  0.00    +0.000 OA
ATOM      3  N9  B68 A   1      25.476   3.020   3.630  0.00  0.00    +0.000 NA
ENDROOT
BRANCH   3   4
ATOM      4  C6  B68 A   1      25.988   1.791   3.559  0.00  0.00    +0.000 A 
ATOM      5  C5  B68 A   1      27.351   1.544   3.410  0.00  0.00    +0.000 A 
ATOM      6  C1  B68 A   1      25.125   0.709   3.679  0.00  0.00    +0.000 A 
ATOM      7  C2  B68 A   1      25.641  -0.583   3.663  0.00  0.00    +0.000 A 
ATOM      8  C3  B68 A   1      27.007  -0.820   3.531  0.00  0.00    +0.000 A 
ATOM      9  C4  B68 A   1      27.889   0.257   3.387  0.00  0.00    +0.000 A 
BRANCH   9  10
ATOM     10  C7  B68 A   1      29.407   0.096   3.176  0.00  0.00    +0.000 C 
ATOM     11  F2  B68 A   1      30.039   1.236   3.439  0.00  0.00    +0.000 F 
ATOM     12  F1  B68 A   1      29.939  -0.858   3.935  0.00  0.00    +0.000 F 
ATOM     13  F3  B68 A   1      29.703  -0.226   1.920  0.00  0.00    +0.000 F 
ENDBRANCH   9  10
BRANCH   8  14
ATOM     14  N8  B68 A   1      27.386  -2.097   3.574  0.00  0.00    +0.000 N 
ATOM     15  O1  B68 A   1      28.166  -2.711   2.558  0.00  0.00    +0.000 OA
ATOM     16  O2  B68 A   1      27.096  -2.872   4.729  0.00  0.00    +0.000 OA
ENDBRANCH   8  14
ENDBRANCH   3   4
BRANCH   1  17
ATOM     17  C11 B68 A   1      24.331   4.961   4.480  0.00  0.00    +0.000 C 
ATOM     18  O11 B68 A   1      22.902   4.985   4.546  0.00  0.00    +0.000 OA
ATOM     19  C12 B68 A   1      24.808   5.504   3.132  0.00  0.00    +0.000 C 
BRANCH  17  20
ATOM     20  C13 B68 A   1      24.902   5.815   5.602  0.00  0.00    +0.000 C 
BRANCH  20  21
ATOM     21  O14 B68 A   1      26.220   6.268   5.254  0.00  0.00    +0.000 OA
BRANCH  21  27
ATOM     22  C19 B68 A   1      29.065   3.343   6.059  0.00  0.00    +0.000 A 
ATOM     23  C18 B68 A   1      28.159   3.733   7.044  0.00  0.00    +0.000 A 
ATOM     24  C17 B68 A   1      27.215   4.723   6.783  0.00  0.00    +0.000 A 
ATOM     25  C20 B68 A   1      29.014   3.956   4.811  0.00  0.00    +0.000 A 
ATOM     26  C21 B68 A   1      28.073   4.947   4.547  0.00  0.00    +0.000 A 
ATOM     27  C16 B68 A   1      27.171   5.335   5.535  0.00  0.00    +0.000 A 
BRANCH  22  31
ATOM     28  C24 B68 A   1      30.991   0.277   6.789  0.00  0.00    +0.000 C 
ATOM     29  C23 B68 A   1      29.746   1.140   6.573  0.00  0.00    +0.000 C 
ATOM     30  O23 B68 A   1      28.621   0.646   6.651  0.00  0.00    +0.000 OA
ATOM     31  N22 B68 A   1      29.996   2.414   6.276  0.00  0.00    +0.000 NA
ENDBRANCH  22  31
ENDBRANCH  21  27
ENDBRANCH  20  21
ENDBRANCH  17  20
ENDBRANCH   1  17
TORSDOF 8
ENDMDL
MODEL 7
REMARK VINA RESULT:      -4.6      5.166      8.667
REMARK  Name = ligand_pdbs\B68.pdb
REMARK  8 active torsions:
REMARK  status: ('A' for Active; 'I' for Inactive)
REMARK    1  A    between atoms: N22_4  and  C19_5
REMARK    2  A    between atoms: C16_10  and  O14_11
REMARK    3  A    between atoms: O14_11  and  C13_12
REMARK    4  A    between atoms: C13_12  and  C11_13
REMARK    5  A    between atoms: C11_13  and  C10_16
REMARK    6  A    between atoms: N9_18  and  C6_19
REMARK    7  A    between atoms: C3_23  and  N8_24
REMARK    8  A    between atoms: C4_27  and  C7_28
REMARK                            x       y       z     vdW  Elec       q    Type
REMARK                         _______ _______ _______ _____ _____    ______ ____
ROOT
ATOM      1  C10 B68 A   1      26.652  -0.872   4.172  0.00  0.00    +0.000 C 
ATOM      2  O10 B68 A   1      26.464  -0.847   5.388  0.00  0.00    +0.000 OA
ATOM      3  N9  B68 A   1      26.436   0.149   3.344  0.00  0.00    +0.000 NA
ENDROOT
BRANCH   3   4
ATOM      4  C6  B68 A   1      25.962   1.344   3.696  0.00  0.00    +0.000 A 
ATOM      5  C5  B68 A   1      26.627   2.536   3.417  0.00  0.00    +0.000 A 
ATOM      6  C1  B68 A   1      24.730   1.403   4.335  0.00  0.00    +0.000 A 
ATOM      7  C2  B68 A   1      24.188   2.641   4.664  0.00  0.00    +0.000 A 
ATOM      8  C3  B68 A   1      24.852   3.829   4.366  0.00  0.00    +0.000 A 
ATOM      9  C4  B68 A   1      26.104   3.788   3.742  0.00  0.00    +0.000 A 
BRANCH   9  10
ATOM     10  C7  B68 A   1      26.941   5.042   3.424  0.00  0.00    +0.000 C 
ATOM     11  F2  B68 A   1      26.218   5.928   2.746  0.00  0.00    +0.000 F 
ATOM     12  F1  B68 A   1      27.414   5.641   4.513  0.00  0.00    +0.000 F 
ATOM     13  F3  B68 A   1      28.000   4.756   2.673  0.00  0.00    +0.000 F 
ENDBRANCH   9  10
BRANCH   8  14
ATOM     14  N8  B68 A   1      24.213   4.953   4.689  0.00  0.00    +0.000 N 
ATOM     15  O1  B68 A   1      24.838   6.035   5.366  0.00  0.00    +0.000 OA
ATOM     16  O2  B68 A   1      22.873   5.143   4.258  0.00  0.00    +0.000 OA
ENDBRANCH   8  14
ENDBRANCH   3   4
BRANCH   1  17
ATOM     17  C11 B68 A   1      27.208  -2.128   3.500  0.00  0.00    +0.000 C 
ATOM     18  O11 B68 A   1      27.560  -1.818   2.150  0.00  0.00    +0.000 OA
ATOM     19  C12 B68 A   1      26.166  -3.247   3.532  0.00  0.00    +0.000 C 
BRANCH  17  20
ATOM     20  C13 B68 A   1      28.450  -2.570   4.258  0.00  0.00    +0.000 C 
BRANCH  20  21
ATOM     21  O14 B68 A   1      29.586  -1.796   3.838  0.00  0.00    +0.000 OA
BRANCH  21  27
ATOM     22  C19 B68 A   1      29.592   1.924   5.698  0.00  0.00    +0.000 A 
ATOM     23  C18 B68 A   1      29.649   1.833   4.309  0.00  0.00    +0.000 A 
ATOM     24  C17 B68 A   1      29.663   0.589   3.683  0.00  0.00    +0.000 A 
ATOM     25  C20 B68 A   1      29.548   0.756   6.453  0.00  0.00    +0.000 A 
ATOM     26  C21 B68 A   1      29.564  -0.489   5.831  0.00  0.00    +0.000 A 
ATOM     27  C16 B68 A   1      29.623  -0.576   4.442  0.00  0.00    +0.000 A 
BRANCH  22  31
ATOM     28  C24 B68 A   1      28.787   5.060   7.477  0.00  0.00    +0.000 C 
ATOM     29  C23 B68 A   1      28.513   3.719   6.792  0.00  0.00    +0.000 C 
ATOM     30  O23 B68 A   1      27.367   3.276   6.718  0.00  0.00    +0.000 OA
ATOM     31  N22 B68 A   1      29.597   3.096   6.336  0.00  0.00    +0.000 NA
ENDBRANCH  22  31
ENDBRANCH  21  27
ENDBRANCH  20  21
ENDBRANCH  17  20
ENDBRANCH   1  17
TORSDOF 8
ENDMDL
MODEL 8
REMARK VINA RESULT:      -4.3      4.643      8.692
REMARK  Name = ligand_pdbs\B68.pdb
REMARK  8 active torsions:
REMARK  status: ('A' for Active; 'I' for Inactive)
REMARK    1  A    between atoms: N22_4  and  C19_5
REMARK    2  A    between atoms: C16_10  and  O14_11
REMARK    3  A    between atoms: O14_11  and  C13_12
REMARK    4  A    between atoms: C13_12  and  C11_13
REMARK    5  A    between atoms: C11_13  and  C10_16
REMARK    6  A    between atoms: N9_18  and  C6_19
REMARK    7  A    between atoms: C3_23  and  N8_24
REMARK    8  A    between atoms: C4_27  and  C7_28
REMARK                            x       y       z     vdW  Elec       q    Type
REMARK                         _______ _______ _______ _____ _____    ______ ____
ROOT
ATOM      1  C10 B68 A   1      29.971   1.677   5.923  0.00  0.00    +0.000 C 
ATOM      2  O10 B68 A   1      30.752   2.580   5.627  0.00  0.00    +0.000 OA
ATOM      3  N9  B68 A   1      28.649   1.809   6.012  0.00  0.00    +0.000 NA
ENDROOT
BRANCH   3   4
ATOM      4  C6  B68 A   1      27.969   2.939   5.818  0.00  0.00    +0.000 A 
ATOM      5  C5  B68 A   1      27.786   3.508   4.559  0.00  0.00    +0.000 A 
ATOM      6  C1  B68 A   1      27.385   3.554   6.918  0.00  0.00    +0.000 A 
ATOM      7  C2  B68 A   1      26.625   4.705   6.735  0.00  0.00    +0.000 A 
ATOM      8  C3  B68 A   1      26.433   5.257   5.471  0.00  0.00    +0.000 A 
ATOM      9  C4  B68 A   1      27.031   4.663   4.354  0.00  0.00    +0.000 A 
BRANCH   9  10
ATOM     10  C7  B68 A   1      26.926   5.231   2.926  0.00  0.00    +0.000 C 
ATOM     11  F2  B68 A   1      26.207   4.423   2.153  0.00  0.00    +0.000 F 
ATOM     12  F1  B68 A   1      26.374   6.441   2.886  0.00  0.00    +0.000 F 
ATOM     13  F3  B68 A   1      28.118   5.352   2.350  0.00  0.00    +0.000 F 
ENDBRANCH   9  10
BRANCH   8  14
ATOM     14  N8  B68 A   1      25.648   6.334   5.416  0.00  0.00    +0.000 N 
ATOM     15  O1  B68 A   1      26.119   7.651   5.665  0.00  0.00    +0.000 OA
ATOM     16  O2  B68 A   1      24.300   6.194   4.992  0.00  0.00    +0.000 OA
ENDBRANCH   8  14
ENDBRANCH   3   4
BRANCH   1  17
ATOM     17  C11 B68 A   1      30.488   0.263   6.189  0.00  0.00    +0.000 C 
ATOM     18  O11 B68 A   1      29.631  -0.377   7.138  0.00  0.00    +0.000 OA
ATOM     19  C12 B68 A   1      31.921   0.316   6.720  0.00  0.00    +0.000 C 
BRANCH  17  20
ATOM     20  C13 B68 A   1      30.460  -0.514   4.881  0.00  0.00    +0.000 C 
BRANCH  20  21
ATOM     21  O14 B68 A   1      29.321  -1.389   4.851  0.00  0.00    +0.000 OA
BRANCH  21  27
ATOM     22  C19 B68 A   1      25.885   0.709   3.807  0.00  0.00    +0.000 A 
ATOM     23  C18 B68 A   1      25.902  -0.089   4.950  0.00  0.00    +0.000 A 
ATOM     24  C17 B68 A   1      27.045  -0.804   5.295  0.00  0.00    +0.000 A 
ATOM     25  C20 B68 A   1      27.026   0.781   3.015  0.00  0.00    +0.000 A 
ATOM     26  C21 B68 A   1      28.170   0.065   3.354  0.00  0.00    +0.000 A 
ATOM     27  C16 B68 A   1      28.183  -0.732   4.496  0.00  0.00    +0.000 A 
BRANCH  22  31
ATOM     28  C24 B68 A   1      22.921   2.898   3.544  0.00  0.00    +0.000 C 
ATOM     29  C23 B68 A   1      24.139   2.250   4.207  0.00  0.00    +0.000 C 
ATOM     30  O23 B68 A   1      24.458   2.549   5.357  0.00  0.00    +0.000 OA
ATOM     31  N22 B68 A   1      24.803   1.394   3.433  0.00  0.00    +0.000 NA
ENDBRANCH  22  31
ENDBRANCH  21  27
ENDBRANCH  20  21
ENDBRANCH  17  20
ENDBRANCH   1  17
TORSDOF 8
ENDMDL
MODEL 9
REMARK VINA RESULT:      -4.1      5.148      6.761
REMARK  Name = ligand_pdbs\B68.pdb
REMARK  8 active torsions:
REMARK  status: ('A' for Active; 'I' for Inactive)
REMARK    1  A    between atoms: N22_4  and  C19_5
REMARK    2  A    between atoms: C16_10  and  O14_11
REMARK    3  A    between atoms: O14_11  and  C13_12
REMARK    4  A    between atoms: C13_12  and  C11_13
REMARK    5  A    between atoms: C11_13  and  C10_16
REMARK    6  A    between atoms: N9_18  and  C6_19
REMARK    7  A    between atoms: C3_23  and  N8_24
REMARK    8  A    between atoms: C4_27  and  C7_28
REMARK                            x       y       z     vdW  Elec       q    Type
REMARK                         _______ _______ _______ _____ _____    ______ ____
ROOT
ATOM      1  C10 B68 A   1      24.645   2.647   4.152  0.00  0.00    +0.000 C 
ATOM      2  O10 B68 A   1      24.020   1.949   3.356  0.00  0.00    +0.000 OA
ATOM      3  N9  B68 A   1      25.886   2.404   4.571  0.00  0.00    +0.000 NA
ENDROOT
BRANCH   3   4
ATOM      4  C6  B68 A   1      26.633   1.360   4.214  0.00  0.00    +0.000 A 
ATOM      5  C5  B68 A   1      26.412   0.069   4.693  0.00  0.00    +0.000 A 
ATOM      6  C1  B68 A   1      27.651   1.562   3.291  0.00  0.00    +0.000 A 
ATOM      7  C2  B68 A   1      28.410   0.478   2.861  0.00  0.00    +0.000 A 
ATOM      8  C3  B68 A   1      28.172  -0.811   3.332  0.00  0.00    +0.000 A 
ATOM      9  C4  B68 A   1      27.164  -1.030   4.277  0.00  0.00    +0.000 A 
BRANCH   9  10
ATOM     10  C7  B68 A   1      26.863  -2.407   4.901  0.00  0.00    +0.000 C 
ATOM     11  F2  B68 A   1      26.428  -2.270   6.150  0.00  0.00    +0.000 F 
ATOM     12  F1  B68 A   1      25.954  -3.099   4.220  0.00  0.00    +0.000 F 
ATOM     13  F3  B68 A   1      27.946  -3.176   4.954  0.00  0.00    +0.000 F 
ENDBRANCH   9  10
BRANCH   8  14
ATOM     14  N8  B68 A   1      28.934  -1.774   2.813  0.00  0.00    +0.000 N 
ATOM     15  O1  B68 A   1      30.205  -2.127   3.339  0.00  0.00    +0.000 OA
ATOM     16  O2  B68 A   1      28.428  -2.564   1.747  0.00  0.00    +0.000 OA
ENDBRANCH   8  14
ENDBRANCH   3   4
BRANCH   1  17
ATOM     17  C11 B68 A   1      24.022   3.924   4.718  0.00  0.00    +0.000 C 
ATOM     18  O11 B68 A   1      23.960   3.821   6.143  0.00  0.00    +0.000 OA
ATOM     19  C12 B68 A   1      22.621   4.128   4.140  0.00  0.00    +0.000 C 
BRANCH  17  20
ATOM     20  C13 B68 A   1      24.906   5.101   4.335  0.00  0.00    +0.000 C 
BRANCH  20  21
ATOM     21  O14 B68 A   1      25.631   5.569   5.484  0.00  0.00    +0.000 OA
BRANCH  21  27
ATOM     22  C19 B68 A   1      29.083   3.320   6.049  0.00  0.00    +0.000 A 
ATOM     23  C18 B68 A   1      28.074   3.314   7.011  0.00  0.00    +0.000 A 
ATOM     24  C17 B68 A   1      26.924   4.077   6.832  0.00  0.00    +0.000 A 
ATOM     25  C20 B68 A   1      28.925   4.099   4.907  0.00  0.00    +0.000 A 
ATOM     26  C21 B68 A   1      27.778   4.866   4.726  0.00  0.00    +0.000 A 
ATOM     27  C16 B68 A   1      26.773   4.858   5.690  0.00  0.00    +0.000 A 
BRANCH  22  31
ATOM     28  C24 B68 A   1      31.679   0.742   6.557  0.00  0.00    +0.000 C 
ATOM     29  C23 B68 A   1      30.264   1.306   6.417  0.00  0.00    +0.000 C 
ATOM     30  O23 B68 A   1      29.284   0.564   6.484  0.00  0.00    +0.000 OA
ATOM     31  N22 B68 A   1      30.208   2.618   6.193  0.00  0.00    +0.000 NA
ENDBRANCH  22  31
ENDBRANCH  21  27
ENDBRANCH  20  21
ENDBRANCH  17  20
ENDBRANCH   1  17
TORSDOF 8
ENDMDL
