MODEL 1
REMARK VINA RESULT:      -7.2      0.000      0.000
REMARK  Name = ligand_pdbs\BHM.pdb
REMARK  5 active torsions:
REMARK  status: ('A' for Active; 'I' for Inactive)
REMARK    1  A    between atoms: C13_2  and  C11_3
REMARK    2  A    between atoms: C11_3  and  C10_6
REMARK    3  A    between atoms: N09_8  and  C06_9
REMARK    4  A    between atoms: C03_13  and  N08_14
REMARK    5  A    between atoms: C04_17  and  C07_18
REMARK                            x       y       z     vdW  Elec       q    Type
REMARK                         _______ _______ _______ _____ _____    ______ ____
ROOT
ATOM      1  C06 BHM A   1      27.243   2.831   3.577  0.00  0.00    +0.000 A 
ATOM      2  C05 BHM A   1      25.929   2.935   4.026  0.00  0.00    +0.000 A 
ATOM      3  C01 BHM A   1      27.970   3.996   3.354  0.00  0.00    +0.000 A 
ATOM      4  C02 BHM A   1      27.380   5.231   3.599  0.00  0.00    +0.000 A 
ATOM      5  C03 BHM A   1      26.071   5.327   4.063  0.00  0.00    +0.000 A 
ATOM      6  C04 BHM A   1      25.317   4.167   4.267  0.00  0.00    +0.000 A 
ENDROOT
BRANCH   6   7
ATOM      7  C07 BHM A   1      23.827   4.188   4.652  0.00  0.00    +0.000 C 
ATOM      8  F01 BHM A   1      23.693   4.518   5.933  0.00  0.00    +0.000 F 
ATOM      9  F02 BHM A   1      23.118   5.039   3.915  0.00  0.00    +0.000 F 
ATOM     10  F03 BHM A   1      23.244   3.004   4.481  0.00  0.00    +0.000 F 
ENDBRANCH   6   7
BRANCH   1  13
ATOM     11  C10 BHM A   1      28.377   0.858   4.233  0.00  0.00    +0.000 C 
ATOM     12  O10 BHM A   1      28.453   1.106   5.437  0.00  0.00    +0.000 OA
ATOM     13  N09 BHM A   1      27.832   1.663   3.323  0.00  0.00    +0.000 NA
BRANCH  11  14
ATOM     14  C11 BHM A   1      28.976  -0.429   3.663  0.00  0.00    +0.000 C 
ATOM     15  O11 BHM A   1      29.706  -1.098   4.696  0.00  0.00    +0.000 OA
ATOM     16  C12 BHM A   1      29.909  -0.075   2.504  0.00  0.00    +0.000 C 
BRANCH  14  18
ATOM     17 BRAI BHM A   1      27.099  -2.343   4.662  0.00  0.00    +0.000 Br
ATOM     18  C13 BHM A   1      27.859  -1.353   3.172  0.00  0.00    +0.000 C 
ENDBRANCH  14  18
ENDBRANCH  11  14
ENDBRANCH   1  13
BRANCH   5  19
ATOM     19  N08 BHM A   1      25.623   6.559   4.312  0.00  0.00    +0.000 N 
ATOM     20  O02 BHM A   1      25.820   7.223   5.551  0.00  0.00    +0.000 OA
ATOM     21  O01 BHM A   1      25.022   7.305   3.263  0.00  0.00    +0.000 OA
ENDBRANCH   5  19
TORSDOF 5
ENDMDL
MODEL 2
REMARK VINA RESULT:      -7.2      3.821      6.819
REMARK  Name = ligand_pdbs\BHM.pdb
REMARK  5 active torsions:
REMARK  status: ('A' for Active; 'I' for Inactive)
REMARK    1  A    between atoms: C13_2  and  C11_3
REMARK    2  A    between atoms: C11_3  and  C10_6
REMARK    3  A    between atoms: N09_8  and  C06_9
REMARK    4  A    between atoms: C03_13  and  N08_14
REMARK    5  A    between atoms: C04_17  and  C07_18
REMARK                            x       y       z     vdW  Elec       q    Type
REMARK                         _______ _______ _______ _____ _____    ______ ____
ROOT
ATOM      1  C06 BHM A   1      27.366   2.474   4.078  0.00  0.00    +0.000 A 
ATOM      2  C05 BHM A   1      28.205   2.052   5.106  0.00  0.00    +0.000 A 
ATOM      3  C01 BHM A   1      26.953   1.547   3.126  0.00  0.00    +0.000 A 
ATOM      4  C02 BHM A   1      27.370   0.225   3.229  0.00  0.00    +0.000 A 
ATOM      5  C03 BHM A   1      28.195  -0.193   4.269  0.00  0.00    +0.000 A 
ATOM      6  C04 BHM A   1      28.641   0.730   5.219  0.00  0.00    +0.000 A 
ENDROOT
BRANCH   6   7
ATOM      7  C07 BHM A   1      29.658   0.381   6.321  0.00  0.00    +0.000 C 
ATOM      8  F01 BHM A   1      29.108  -0.454   7.198  0.00  0.00    +0.000 F 
ATOM      9  F02 BHM A   1      30.767  -0.175   5.840  0.00  0.00    +0.000 F 
ATOM     10  F03 BHM A   1      30.065   1.455   6.992  0.00  0.00    +0.000 F 
ENDBRANCH   6   7
BRANCH   1  13
ATOM     11  C10 BHM A   1      26.546   4.522   4.939  0.00  0.00    +0.000 C 
ATOM     12  O10 BHM A   1      26.439   4.174   6.115  0.00  0.00    +0.000 OA
ATOM     13  N09 BHM A   1      26.959   3.736   3.946  0.00  0.00    +0.000 NA
BRANCH  11  14
ATOM     14  C11 BHM A   1      26.145   5.934   4.504  0.00  0.00    +0.000 C 
ATOM     15  O11 BHM A   1      26.221   6.018   3.078  0.00  0.00    +0.000 OA
ATOM     16  C12 BHM A   1      27.101   6.943   5.143  0.00  0.00    +0.000 C 
BRANCH  14  18
ATOM     17 BRAI BHM A   1      23.566   4.700   4.561  0.00  0.00    +0.000 Br
ATOM     18  C13 BHM A   1      24.707   6.227   4.939  0.00  0.00    +0.000 C 
ENDBRANCH  14  18
ENDBRANCH  11  14
ENDBRANCH   1  13
BRANCH   5  19
ATOM     19  N08 BHM A   1      28.492  -1.494   4.299  0.00  0.00    +0.000 N 
ATOM     20  O02 BHM A   1      27.633  -2.476   4.859  0.00  0.00    +0.000 OA
ATOM     21  O01 BHM A   1      29.663  -1.955   3.638  0.00  0.00    +0.000 OA
ENDBRANCH   5  19
TORSDOF 5
ENDMDL
MODEL 3
REMARK VINA RESULT:      -6.8      1.311      1.918
REMARK  Name = ligand_pdbs\BHM.pdb
REMARK  5 active torsions:
REMARK  status: ('A' for Active; 'I' for Inactive)
REMARK    1  A    between atoms: C13_2  and  C11_3
REMARK    2  A    between atoms: C11_3  and  C10_6
REMARK    3  A    between atoms: N09_8  and  C06_9
REMARK    4  A    between atoms: C03_13  and  N08_14
REMARK    5  A    between atoms: C04_17  and  C07_18
REMARK                            x       y       z     vdW  Elec       q    Type
REMARK                         _______ _______ _______ _____ _____    ______ ____
ROOT
ATOM      1  C06 BHM A   1      27.145   2.582   3.801  0.00  0.00    +0.000 A 
ATOM      2  C05 BHM A   1      25.832   2.827   4.197  0.00  0.00    +0.000 A 
ATOM      3  C01 BHM A   1      27.965   3.662   3.494  0.00  0.00    +0.000 A 
ATOM      4  C02 BHM A   1      27.468   4.956   3.605  0.00  0.00    +0.000 A 
ATOM      5  C03 BHM A   1      26.160   5.194   4.018  0.00  0.00    +0.000 A 
ATOM      6  C04 BHM A   1      25.313   4.119   4.303  0.00  0.00    +0.000 A 
ENDROOT
BRANCH   6   7
ATOM      7  C07 BHM A   1      23.820   4.289   4.638  0.00  0.00    +0.000 C 
ATOM      8  F01 BHM A   1      23.174   3.146   4.426  0.00  0.00    +0.000 F 
ATOM      9  F02 BHM A   1      23.616   4.668   5.897  0.00  0.00    +0.000 F 
ATOM     10  F03 BHM A   1      23.237   5.222   3.891  0.00  0.00    +0.000 F 
ENDBRANCH   6   7
BRANCH   1  13
ATOM     11  C10 BHM A   1      27.166   0.259   4.261  0.00  0.00    +0.000 C 
ATOM     12  O10 BHM A   1      26.215   0.239   5.043  0.00  0.00    +0.000 OA
ATOM     13  N09 BHM A   1      27.646   1.354   3.674  0.00  0.00    +0.000 NA
BRANCH  11  14
ATOM     14  C11 BHM A   1      27.933  -1.024   3.932  0.00  0.00    +0.000 C 
ATOM     15  O11 BHM A   1      27.916  -1.223   2.516  0.00  0.00    +0.000 OA
ATOM     16  C12 BHM A   1      27.260  -2.202   4.638  0.00  0.00    +0.000 C 
BRANCH  14  18
ATOM     17 BRAI BHM A   1      29.470   0.013   6.110  0.00  0.00    +0.000 Br
ATOM     18  C13 BHM A   1      29.387  -0.898   4.395  0.00  0.00    +0.000 C 
ENDBRANCH  14  18
ENDBRANCH  11  14
ENDBRANCH   1  13
BRANCH   5  19
ATOM     19  N08 BHM A   1      25.804   6.474   4.137  0.00  0.00    +0.000 N 
ATOM     20  O02 BHM A   1      25.203   7.216   3.086  0.00  0.00    +0.000 OA
ATOM     21  O01 BHM A   1      25.912   7.112   5.402  0.00  0.00    +0.000 OA
ENDBRANCH   5  19
TORSDOF 5
ENDMDL
MODEL 4
REMARK VINA RESULT:      -6.8      4.186      6.989
REMARK  Name = ligand_pdbs\BHM.pdb
REMARK  5 active torsions:
REMARK  status: ('A' for Active; 'I' for Inactive)
REMARK    1  A    between atoms: C13_2  and  C11_3
REMARK    2  A    between atoms: C11_3  and  C10_6
REMARK    3  A    between atoms: N09_8  and  C06_9
REMARK    4  A    between atoms: C03_13  and  N08_14
REMARK    5  A    between atoms: C04_17  and  C07_18
REMARK                            x       y       z     vdW  Elec       q    Type
REMARK                         _______ _______ _______ _____ _____    ______ ____
ROOT
ATOM      1  C06 BHM A   1      26.083   2.410   4.666  0.00  0.00    +0.000 A 
ATOM      2  C05 BHM A   1      27.202   1.962   5.363  0.00  0.00    +0.000 A 
ATOM      3  C01 BHM A   1      25.445   1.538   3.790  0.00  0.00    +0.000 A 
ATOM      4  C02 BHM A   1      25.923   0.241   3.642  0.00  0.00    +0.000 A 
ATOM      5  C03 BHM A   1      27.033  -0.205   4.354  0.00  0.00    +0.000 A 
ATOM      6  C04 BHM A   1      27.703   0.666   5.218  0.00  0.00    +0.000 A 
ENDROOT
BRANCH   6   7
ATOM      7  C07 BHM A   1      29.010   0.296   5.942  0.00  0.00    +0.000 C 
ATOM      8  F01 BHM A   1      29.882  -0.211   5.075  0.00  0.00    +0.000 F 
ATOM      9  F02 BHM A   1      29.571   1.336   6.553  0.00  0.00    +0.000 F 
ATOM     10  F03 BHM A   1      28.820  -0.612   6.895  0.00  0.00    +0.000 F 
ENDBRANCH   6   7
BRANCH   1  13
ATOM     11  C10 BHM A   1      26.027   4.704   4.080  0.00  0.00    +0.000 C 
ATOM     12  O10 BHM A   1      26.948   4.687   3.263  0.00  0.00    +0.000 OA
ATOM     13  N09 BHM A   1      25.608   3.650   4.778  0.00  0.00    +0.000 NA
BRANCH  11  14
ATOM     14  C11 BHM A   1      25.297   6.009   4.405  0.00  0.00    +0.000 C 
ATOM     15  O11 BHM A   1      24.036   5.698   5.006  0.00  0.00    +0.000 OA
ATOM     16  C12 BHM A   1      25.083   6.797   3.111  0.00  0.00    +0.000 C 
BRANCH  14  18
ATOM     17 BRAI BHM A   1      25.210   8.506   5.797  0.00  0.00    +0.000 Br
ATOM     18  C13 BHM A   1      26.122   6.838   5.392  0.00  0.00    +0.000 C 
ENDBRANCH  14  18
ENDBRANCH  11  14
ENDBRANCH   1  13
BRANCH   5  19
ATOM     19  N08 BHM A   1      27.375  -1.482   4.173  0.00  0.00    +0.000 N 
ATOM     20  O02 BHM A   1      26.965  -2.528   5.041  0.00  0.00    +0.000 OA
ATOM     21  O01 BHM A   1      28.081  -1.853   2.997  0.00  0.00    +0.000 OA
ENDBRANCH   5  19
TORSDOF 5
ENDMDL
MODEL 5
REMARK VINA RESULT:      -6.7      3.142      6.460
REMARK  Name = ligand_pdbs\BHM.pdb
REMARK  5 active torsions:
REMARK  status: ('A' for Active; 'I' for Inactive)
REMARK    1  A    between atoms: C13_2  and  C11_3
REMARK    2  A    between atoms: C11_3  and  C10_6
REMARK    3  A    between atoms: N09_8  and  C06_9
REMARK    4  A    between atoms: C03_13  and  N08_14
REMARK    5  A    between atoms: C04_17  and  C07_18
REMARK                            x       y       z     vdW  Elec       q    Type
REMARK                         _______ _______ _______ _____ _____    ______ ____
ROOT
ATOM      1  C06 BHM A   1      27.111   3.556   5.384  0.00  0.00    +0.000 A 
ATOM      2  C05 BHM A   1      26.584   2.361   4.903  0.00  0.00    +0.000 A 
ATOM      3  C01 BHM A   1      28.334   3.531   6.047  0.00  0.00    +0.000 A 
ATOM      4  C02 BHM A   1      29.008   2.325   6.198  0.00  0.00    +0.000 A 
ATOM      5  C03 BHM A   1      28.483   1.135   5.700  0.00  0.00    +0.000 A 
ATOM      6  C04 BHM A   1      27.242   1.139   5.056  0.00  0.00    +0.000 A 
ENDROOT
BRANCH   6   7
ATOM      7  C07 BHM A   1      26.530  -0.146   4.593  0.00  0.00    +0.000 C 
ATOM      8  F01 BHM A   1      27.169  -0.669   3.551  0.00  0.00    +0.000 F 
ATOM      9  F02 BHM A   1      26.454  -1.065   5.553  0.00  0.00    +0.000 F 
ATOM     10  F03 BHM A   1      25.274   0.079   4.221  0.00  0.00    +0.000 F 
ENDBRANCH   6   7
BRANCH   1  13
ATOM     11  C10 BHM A   1      26.344   5.414   4.133  0.00  0.00    +0.000 C 
ATOM     12  O10 BHM A   1      26.818   5.086   3.045  0.00  0.00    +0.000 OA
ATOM     13  N09 BHM A   1      26.484   4.726   5.264  0.00  0.00    +0.000 NA
BRANCH  11  14
ATOM     14  C11 BHM A   1      25.567   6.725   4.282  0.00  0.00    +0.000 C 
ATOM     15  O11 BHM A   1      25.291   7.250   2.980  0.00  0.00    +0.000 OA
ATOM     16  C12 BHM A   1      26.411   7.717   5.083  0.00  0.00    +0.000 C 
BRANCH  14  18
ATOM     17 BRAI BHM A   1      23.517   4.739   4.480  0.00  0.00    +0.000 Br
ATOM     18  C13 BHM A   1      24.240   6.467   5.000  0.00  0.00    +0.000 C 
ENDBRANCH  14  18
ENDBRANCH  11  14
ENDBRANCH   1  13
BRANCH   5  19
ATOM     19  N08 BHM A   1      29.237   0.047   5.858  0.00  0.00    +0.000 N 
ATOM     20  O02 BHM A   1      29.790  -0.681   4.771  0.00  0.00    +0.000 OA
ATOM     21  O01 BHM A   1      29.617  -0.353   7.168  0.00  0.00    +0.000 OA
ENDBRANCH   5  19
TORSDOF 5
ENDMDL
MODEL 6
REMARK VINA RESULT:      -6.5      3.644      6.708
REMARK  Name = ligand_pdbs\BHM.pdb
REMARK  5 active torsions:
REMARK  status: ('A' for Active; 'I' for Inactive)
REMARK    1  A    between atoms: C13_2  and  C11_3
REMARK    2  A    between atoms: C11_3  and  C10_6
REMARK    3  A    between atoms: N09_8  and  C06_9
REMARK    4  A    between atoms: C03_13  and  N08_14
REMARK    5  A    between atoms: C04_17  and  C07_18
REMARK                            x       y       z     vdW  Elec       q    Type
REMARK                         _______ _______ _______ _____ _____    ______ ____
ROOT
ATOM      1  C06 BHM A   1      27.355   3.442   4.585  0.00  0.00    +0.000 A 
ATOM      2  C05 BHM A   1      26.955   2.480   3.662  0.00  0.00    +0.000 A 
ATOM      3  C01 BHM A   1      28.093   3.041   5.694  0.00  0.00    +0.000 A 
ATOM      4  C02 BHM A   1      28.427   1.701   5.848  0.00  0.00    +0.000 A 
ATOM      5  C03 BHM A   1      28.038   0.746   4.912  0.00  0.00    +0.000 A 
ATOM      6  C04 BHM A   1      27.272   1.128   3.806  0.00  0.00    +0.000 A 
ENDROOT
BRANCH   6   7
ATOM      7  C07 BHM A   1      26.691   0.121   2.797  0.00  0.00    +0.000 C 
ATOM      8  F01 BHM A   1      25.904   0.751   1.929  0.00  0.00    +0.000 F 
ATOM      9  F02 BHM A   1      27.633  -0.532   2.123  0.00  0.00    +0.000 F 
ATOM     10  F03 BHM A   1      25.962  -0.822   3.387  0.00  0.00    +0.000 F 
ENDBRANCH   6   7
BRANCH   1  13
ATOM     11  C10 BHM A   1      25.841   5.259   4.711  0.00  0.00    +0.000 C 
ATOM     12  O10 BHM A   1      24.840   4.616   5.029  0.00  0.00    +0.000 OA
ATOM     13  N09 BHM A   1      27.040   4.732   4.470  0.00  0.00    +0.000 NA
BRANCH  11  14
ATOM     14  C11 BHM A   1      25.763   6.774   4.510  0.00  0.00    +0.000 C 
ATOM     15  O11 BHM A   1      25.712   7.053   3.108  0.00  0.00    +0.000 OA
ATOM     16  C12 BHM A   1      27.001   7.424   5.131  0.00  0.00    +0.000 C 
BRANCH  14  18
ATOM     17 BRAI BHM A   1      24.889   8.985   6.100  0.00  0.00    +0.000 Br
ATOM     18  C13 BHM A   1      24.496   7.325   5.168  0.00  0.00    +0.000 C 
ENDBRANCH  14  18
ENDBRANCH  11  14
ENDBRANCH   1  13
BRANCH   5  19
ATOM     19  N08 BHM A   1      28.456  -0.501   5.134  0.00  0.00    +0.000 N 
ATOM     20  O02 BHM A   1      27.692  -1.463   5.846  0.00  0.00    +0.000 OA
ATOM     21  O01 BHM A   1      29.666  -0.945   4.537  0.00  0.00    +0.000 OA
ENDBRANCH   5  19
TORSDOF 5
ENDMDL
MODEL 7
REMARK VINA RESULT:      -6.3      3.717      6.728
REMARK  Name = ligand_pdbs\BHM.pdb
REMARK  5 active torsions:
REMARK  status: ('A' for Active; 'I' for Inactive)
REMARK    1  A    between atoms: C13_2  and  C11_3
REMARK    2  A    between atoms: C11_3  and  C10_6
REMARK    3  A    between atoms: N09_8  and  C06_9
REMARK    4  A    between atoms: C03_13  and  N08_14
REMARK    5  A    between atoms: C04_17  and  C07_18
REMARK                            x       y       z     vdW  Elec       q    Type
REMARK                         _______ _______ _______ _____ _____    ______ ____
ROOT
ATOM      1  C06 BHM A   1      26.345   2.526   4.331  0.00  0.00    +0.000 A 
ATOM      2  C05 BHM A   1      27.266   1.901   5.168  0.00  0.00    +0.000 A 
ATOM      3  C01 BHM A   1      25.842   1.822   3.243  0.00  0.00    +0.000 A 
ATOM      4  C02 BHM A   1      26.253   0.511   3.024  0.00  0.00    +0.000 A 
ATOM      5  C03 BHM A   1      27.162  -0.113   3.875  0.00  0.00    +0.000 A 
ATOM      6  C04 BHM A   1      27.698   0.590   4.957  0.00  0.00    +0.000 A 
ENDROOT
BRANCH   6   7
ATOM      7  C07 BHM A   1      28.802   0.022   5.867  0.00  0.00    +0.000 C 
ATOM      8  F01 BHM A   1      29.208   0.953   6.725  0.00  0.00    +0.000 F 
ATOM      9  F02 BHM A   1      28.403  -1.047   6.552  0.00  0.00    +0.000 F 
ATOM     10  F03 BHM A   1      29.867  -0.379   5.179  0.00  0.00    +0.000 F 
ENDBRANCH   6   7
BRANCH   1  13
ATOM     11  C10 BHM A   1      26.550   4.866   4.027  0.00  0.00    +0.000 C 
ATOM     12  O10 BHM A   1      27.602   4.856   3.387  0.00  0.00    +0.000 OA
ATOM     13  N09 BHM A   1      25.941   3.784   4.509  0.00  0.00    +0.000 NA
BRANCH  11  14
ATOM     14  C11 BHM A   1      25.862   6.188   4.376  0.00  0.00    +0.000 C 
ATOM     15  O11 BHM A   1      25.338   6.768   3.177  0.00  0.00    +0.000 OA
ATOM     16  C12 BHM A   1      26.884   7.130   5.014  0.00  0.00    +0.000 C 
BRANCH  14  18
ATOM     17 BRAI BHM A   1      23.377   4.779   4.525  0.00  0.00    +0.000 Br
ATOM     18  C13 BHM A   1      24.705   5.935   5.346  0.00  0.00    +0.000 C 
ENDBRANCH  14  18
ENDBRANCH  11  14
ENDBRANCH   1  13
BRANCH   5  19
ATOM     19  N08 BHM A   1      27.447  -1.386   3.599  0.00  0.00    +0.000 N 
ATOM     20  O02 BHM A   1      28.445  -1.776   2.668  0.00  0.00    +0.000 OA
ATOM     21  O01 BHM A   1      26.818  -2.418   4.347  0.00  0.00    +0.000 OA
ENDBRANCH   5  19
TORSDOF 5
ENDMDL
MODEL 8
REMARK VINA RESULT:      -5.9      3.779      6.732
REMARK  Name = ligand_pdbs\BHM.pdb
REMARK  5 active torsions:
REMARK  status: ('A' for Active; 'I' for Inactive)
REMARK    1  A    between atoms: C13_2  and  C11_3
REMARK    2  A    between atoms: C11_3  and  C10_6
REMARK    3  A    between atoms: N09_8  and  C06_9
REMARK    4  A    between atoms: C03_13  and  N08_14
REMARK    5  A    between atoms: C04_17  and  C07_18
REMARK                            x       y       z     vdW  Elec       q    Type
REMARK                         _______ _______ _______ _____ _____    ______ ____
ROOT
ATOM      1  C06 BHM A   1      27.128   1.895   4.644  0.00  0.00    +0.000 A 
ATOM      2  C05 BHM A   1      26.785   0.574   4.366  0.00  0.00    +0.000 A 
ATOM      3  C01 BHM A   1      28.456   2.285   4.510  0.00  0.00    +0.000 A 
ATOM      4  C02 BHM A   1      29.405   1.360   4.089  0.00  0.00    +0.000 A 
ATOM      5  C03 BHM A   1      29.052   0.045   3.797  0.00  0.00    +0.000 A 
ATOM      6  C04 BHM A   1      27.727  -0.371   3.952  0.00  0.00    +0.000 A 
ENDROOT
BRANCH   6   7
ATOM      7  C07 BHM A   1      27.277  -1.833   3.778  0.00  0.00    +0.000 C 
ATOM      8  F01 BHM A   1      27.678  -2.559   4.817  0.00  0.00    +0.000 F 
ATOM      9  F02 BHM A   1      25.958  -1.953   3.656  0.00  0.00    +0.000 F 
ATOM     10  F03 BHM A   1      27.784  -2.390   2.682  0.00  0.00    +0.000 F 
ENDBRANCH   6   7
BRANCH   1  13
ATOM     11  C10 BHM A   1      25.684   3.740   4.300  0.00  0.00    +0.000 C 
ATOM     12  O10 BHM A   1      25.943   3.931   3.111  0.00  0.00    +0.000 OA
ATOM     13  N09 BHM A   1      26.243   2.800   5.060  0.00  0.00    +0.000 NA
BRANCH  11  14
ATOM     14  C11 BHM A   1      24.691   4.642   5.037  0.00  0.00    +0.000 C 
ATOM     15  O11 BHM A   1      24.750   4.350   6.436  0.00  0.00    +0.000 OA
ATOM     16  C12 BHM A   1      23.283   4.377   4.501  0.00  0.00    +0.000 C 
BRANCH  14  18
ATOM     17 BRAI BHM A   1      26.960   6.380   5.156  0.00  0.00    +0.000 Br
ATOM     18  C13 BHM A   1      25.064   6.112   4.824  0.00  0.00    +0.000 C 
ENDBRANCH  14  18
ENDBRANCH  11  14
ENDBRANCH   1  13
BRANCH   5  19
ATOM     19  N08 BHM A   1      30.033  -0.742   3.354  0.00  0.00    +0.000 N 
ATOM     20  O02 BHM A   1      30.473  -1.902   4.045  0.00  0.00    +0.000 OA
ATOM     21  O01 BHM A   1      30.597  -0.497   2.073  0.00  0.00    +0.000 OA
ENDBRANCH   5  19
TORSDOF 5
ENDMDL
MODEL 9
REMARK VINA RESULT:      -5.8      2.040      2.648
REMARK  Name = ligand_pdbs\BHM.pdb
REMARK  5 active torsions:
REMARK  status: ('A' for Active; 'I' for Inactive)
REMARK    1  A    between atoms: C13_2  and  C11_3
REMARK    2  A    between atoms: C11_3  and  C10_6
REMARK    3  A    between atoms: N09_8  and  C06_9
REMARK    4  A    between atoms: C03_13  and  N08_14
REMARK    5  A    between atoms: C04_17  and  C07_18
REMARK                            x       y       z     vdW  Elec       q    Type
REMARK                         _______ _______ _______ _____ _____    ______ ____
ROOT
ATOM      1  C06 BHM A   1      26.862   1.601   3.629  0.00  0.00    +0.000 A 
ATOM      2  C05 BHM A   1      27.162   2.952   3.474  0.00  0.00    +0.000 A 
ATOM      3  C01 BHM A   1      25.627   1.245   4.160  0.00  0.00    +0.000 A 
ATOM      4  C02 BHM A   1      24.716   2.238   4.505  0.00  0.00    +0.000 A 
ATOM      5  C03 BHM A   1      25.017   3.586   4.332  0.00  0.00    +0.000 A 
ATOM      6  C04 BHM A   1      26.264   3.962   3.825  0.00  0.00    +0.000 A 
ENDROOT
BRANCH   6   7
ATOM      7  C07 BHM A   1      26.726   5.427   3.724  0.00  0.00    +0.000 C 
ATOM      8  F01 BHM A   1      26.984   5.907   4.937  0.00  0.00    +0.000 F 
ATOM      9  F02 BHM A   1      27.810   5.573   2.967  0.00  0.00    +0.000 F 
ATOM     10  F03 BHM A   1      25.804   6.210   3.172  0.00  0.00    +0.000 F 
ENDBRANCH   6   7
BRANCH   1  13
ATOM     11  C10 BHM A   1      28.585   0.064   4.156  0.00  0.00    +0.000 C 
ATOM     12  O10 BHM A   1      28.749   0.399   5.330  0.00  0.00    +0.000 OA
ATOM     13  N09 BHM A   1      27.718   0.628   3.318  0.00  0.00    +0.000 NA
BRANCH  11  14
ATOM     14  C11 BHM A   1      29.442  -1.040   3.533  0.00  0.00    +0.000 C 
ATOM     15  O11 BHM A   1      30.389  -1.495   4.504  0.00  0.00    +0.000 OA
ATOM     16  C12 BHM A   1      30.170  -0.477   2.311  0.00  0.00    +0.000 C 
BRANCH  14  18
ATOM     17 BRAI BHM A   1      27.177  -2.525   4.453  0.00  0.00    +0.000 Br
ATOM     18  C13 BHM A   1      28.557  -2.218   3.119  0.00  0.00    +0.000 C 
ENDBRANCH  14  18
ENDBRANCH  11  14
ENDBRANCH   1  13
BRANCH   5  19
ATOM     19  N08 BHM A   1      24.051   4.450   4.650  0.00  0.00    +0.000 N 
ATOM     20  O02 BHM A   1      22.725   4.353   4.151  0.00  0.00    +0.000 OA
ATOM     21  O01 BHM A   1      24.307   5.452   5.624  0.00  0.00    +0.000 OA
ENDBRANCH   5  19
TORSDOF 5
ENDMDL
