MODEL 1
REMARK VINA RESULT:      -2.3      0.000      0.000
REMARK  Name = ligand_pdbs\BME.pdb
REMARK  1 active torsions:
REMARK  status: ('A' for Active; 'I' for Inactive)
REMARK    1  A    between atoms: C1_1  and  C2_2
REMARK                            x       y       z     vdW  Elec       q    Type
REMARK                         _______ _______ _______ _____ _____    ______ ____
ROOT
ATOM      1  C1  BME A1101      24.321   5.142   4.928  0.00  0.00    +0.000 C 
ATOM      2  O1  BME A1101      23.107   4.564   4.482  0.00  0.00    +0.000 OA
ENDROOT
BRANCH   1   3
ATOM      3  C2  BME A1101      24.558   6.492   4.333  0.00  0.00    +0.000 C 
ATOM      4  S2  BME A1101      26.040   7.229   5.072  0.00  0.00    +0.000 S 
ENDBRANCH   1   3
TORSDOF 1
ENDMDL
MODEL 2
REMARK VINA RESULT:      -2.2      2.826      2.981
REMARK  Name = ligand_pdbs\BME.pdb
REMARK  1 active torsions:
REMARK  status: ('A' for Active; 'I' for Inactive)
REMARK    1  A    between atoms: C1_1  and  C2_2
REMARK                            x       y       z     vdW  Elec       q    Type
REMARK                         _______ _______ _______ _____ _____    ______ ____
ROOT
ATOM      1  C1  BME A1101      25.704   7.300   5.006  0.00  0.00    +0.000 C 
ATOM      2  O1  BME A1101      25.214   8.398   5.755  0.00  0.00    +0.000 OA
ENDROOT
BRANCH   1   3
ATOM      3  C2  BME A1101      24.641   6.663   4.171  0.00  0.00    +0.000 C 
ATOM      4  S2  BME A1101      24.241   5.027   4.842  0.00  0.00    +0.000 S 
ENDBRANCH   1   3
TORSDOF 1
ENDMDL
MODEL 3
REMARK VINA RESULT:      -2.1      1.271      1.408
REMARK  Name = ligand_pdbs\BME.pdb
REMARK  1 active torsions:
REMARK  status: ('A' for Active; 'I' for Inactive)
REMARK    1  A    between atoms: C1_1  and  C2_2
REMARK                            x       y       z     vdW  Elec       q    Type
REMARK                         _______ _______ _______ _____ _____    ______ ____
ROOT
ATOM      1  C1  BME A1101      24.519   6.261   4.442  0.00  0.00    +0.000 C 
ATOM      2  O1  BME A1101      24.277   5.135   5.267  0.00  0.00    +0.000 OA
ENDROOT
BRANCH   1   3
ATOM      3  C2  BME A1101      25.577   7.156   5.001  0.00  0.00    +0.000 C 
ATOM      4  S2  BME A1101      27.172   6.296   4.982  0.00  0.00    +0.000 S 
ENDBRANCH   1   3
TORSDOF 1
ENDMDL
MODEL 4
REMARK VINA RESULT:      -2.1      3.298      3.415
REMARK  Name = ligand_pdbs\BME.pdb
REMARK  1 active torsions:
REMARK  status: ('A' for Active; 'I' for Inactive)
REMARK    1  A    between atoms: C1_1  and  C2_2
REMARK                            x       y       z     vdW  Elec       q    Type
REMARK                         _______ _______ _______ _____ _____    ______ ____
ROOT
ATOM      1  C1  BME A1101      27.308   5.676   4.705  0.00  0.00    +0.000 C 
ATOM      2  O1  BME A1101      27.631   6.936   5.265  0.00  0.00    +0.000 OA
ENDROOT
BRANCH   1   3
ATOM      3  C2  BME A1101      26.162   5.020   5.405  0.00  0.00    +0.000 C 
ATOM      4  S2  BME A1101      24.601   5.621   4.709  0.00  0.00    +0.000 S 
ENDBRANCH   1   3
TORSDOF 1
ENDMDL
MODEL 5
REMARK VINA RESULT:      -2.0      4.008      4.031
REMARK  Name = ligand_pdbs\BME.pdb
REMARK  1 active torsions:
REMARK  status: ('A' for Active; 'I' for Inactive)
REMARK    1  A    between atoms: C1_1  and  C2_2
REMARK                            x       y       z     vdW  Elec       q    Type
REMARK                         _______ _______ _______ _____ _____    ______ ____
ROOT
ATOM      1  C1  BME A1101      26.903   5.696   4.720  0.00  0.00    +0.000 C 
ATOM      2  O1  BME A1101      27.648   6.793   5.218  0.00  0.00    +0.000 OA
ENDROOT
BRANCH   1   3
ATOM      3  C2  BME A1101      27.592   5.012   3.583  0.00  0.00    +0.000 C 
ATOM      4  S2  BME A1101      27.551   3.218   3.839  0.00  0.00    +0.000 S 
ENDBRANCH   1   3
TORSDOF 1
ENDMDL
MODEL 6
REMARK VINA RESULT:      -1.9      8.215      8.233
REMARK  Name = ligand_pdbs\BME.pdb
REMARK  1 active torsions:
REMARK  status: ('A' for Active; 'I' for Inactive)
REMARK    1  A    between atoms: C1_1  and  C2_2
REMARK                            x       y       z     vdW  Elec       q    Type
REMARK                         _______ _______ _______ _____ _____    ______ ____
ROOT
ATOM      1  C1  BME A1101      27.167  -2.450   4.581  0.00  0.00    +0.000 C 
ATOM      2  O1  BME A1101      26.673  -1.376   5.361  0.00  0.00    +0.000 OA
ENDROOT
BRANCH   1   3
ATOM      3  C2  BME A1101      28.368  -2.064   3.780  0.00  0.00    +0.000 C 
ATOM      4  S2  BME A1101      28.046  -0.503   2.917  0.00  0.00    +0.000 S 
ENDBRANCH   1   3
TORSDOF 1
ENDMDL
MODEL 7
REMARK VINA RESULT:      -1.9      7.990      8.125
REMARK  Name = ligand_pdbs\BME.pdb
REMARK  1 active torsions:
REMARK  status: ('A' for Active; 'I' for Inactive)
REMARK    1  A    between atoms: C1_1  and  C2_2
REMARK                            x       y       z     vdW  Elec       q    Type
REMARK                         _______ _______ _______ _____ _____    ______ ____
ROOT
ATOM      1  C1  BME A1101      28.874   0.346   6.226  0.00  0.00    +0.000 C 
ATOM      2  O1  BME A1101      30.165   0.351   6.808  0.00  0.00    +0.000 OA
ENDROOT
BRANCH   1   3
ATOM      3  C2  BME A1101      28.772  -0.605   5.078  0.00  0.00    +0.000 C 
ATOM      4  S2  BME A1101      27.179  -1.468   5.144  0.00  0.00    +0.000 S 
ENDBRANCH   1   3
TORSDOF 1
ENDMDL
MODEL 8
REMARK VINA RESULT:      -1.9      2.843      2.861
REMARK  Name = ligand_pdbs\BME.pdb
REMARK  1 active torsions:
REMARK  status: ('A' for Active; 'I' for Inactive)
REMARK    1  A    between atoms: C1_1  and  C2_2
REMARK                            x       y       z     vdW  Elec       q    Type
REMARK                         _______ _______ _______ _____ _____    ______ ____
ROOT
ATOM      1  C1  BME A1101      26.669   4.697   5.583  0.00  0.00    +0.000 C 
ATOM      2  O1  BME A1101      26.108   3.855   6.574  0.00  0.00    +0.000 OA
ENDROOT
BRANCH   1   3
ATOM      3  C2  BME A1101      25.650   5.591   4.954  0.00  0.00    +0.000 C 
ATOM      4  S2  BME A1101      24.084   4.696   4.777  0.00  0.00    +0.000 S 
ENDBRANCH   1   3
TORSDOF 1
ENDMDL
MODEL 9
REMARK VINA RESULT:      -1.9      6.503      6.657
REMARK  Name = ligand_pdbs\BME.pdb
REMARK  1 active torsions:
REMARK  status: ('A' for Active; 'I' for Inactive)
REMARK    1  A    between atoms: C1_1  and  C2_2
REMARK                            x       y       z     vdW  Elec       q    Type
REMARK                         _______ _______ _______ _____ _____    ______ ____
ROOT
ATOM      1  C1  BME A1101      28.984   2.801   5.444  0.00  0.00    +0.000 C 
ATOM      2  O1  BME A1101      28.448   3.546   6.523  0.00  0.00    +0.000 OA
ENDROOT
BRANCH   1   3
ATOM      3  C2  BME A1101      30.351   2.276   5.741  0.00  0.00    +0.000 C 
ATOM      4  S2  BME A1101      30.217   0.674   6.579  0.00  0.00    +0.000 S 
ENDBRANCH   1   3
TORSDOF 1
ENDMDL
