MODEL 1
REMARK VINA RESULT:      -7.1      0.000      0.000
REMARK  Name = ligand_pdbs\CA4.pdb
REMARK  3 active torsions:
REMARK  status: ('A' for Active; 'I' for Inactive)
REMARK    1  A    between atoms: C17_22  and  C20_23
REMARK    2  A    between atoms: C17_22  and  O17_26
REMARK    3  A    between atoms: O17_26  and  C23_27
REMARK                            x       y       z     vdW  Elec       q    Type
REMARK                         _______ _______ _______ _____ _____    ______ ____
ROOT
ATOM      1  C4  CA4 A   1      30.062  -1.333   4.695  0.00  0.00    +0.000 C 
ATOM      2  C14 CA4 A   1      26.685   3.107   5.499  0.00  0.00    +0.000 C 
ATOM      3  C5  CA4 A   1      29.112  -0.360   4.988  0.00  0.00    +0.000 C 
ATOM      4  C6  CA4 A   1      29.351   0.509   6.049  0.00  0.00    +0.000 C 
ATOM      5  C11 CA4 A   1      25.855   1.126   3.544  0.00  0.00    +0.000 C 
ATOM      6  C7  CA4 A   1      28.425   1.484   6.412  0.00  0.00    +0.000 C 
ATOM      7  C8  CA4 A   1      27.096   1.643   5.669  0.00  0.00    +0.000 C 
ATOM      8  C9  CA4 A   1      27.199   1.028   4.272  0.00  0.00    +0.000 C 
ATOM      9  C10 CA4 A   1      27.706  -0.410   4.380  0.00  0.00    +0.000 C 
ATOM     10  C12 CA4 A   1      25.416   2.588   3.408  0.00  0.00    +0.000 C 
ATOM     11  C13 CA4 A   1      25.336   3.223   4.797  0.00  0.00    +0.000 C 
ATOM     12  C3  CA4 A   1      29.927  -2.211   3.626  0.00  0.00    +0.000 C 
ATOM     13  C19 CA4 A   1      26.844  -1.212   5.359  0.00  0.00    +0.000 C 
ATOM     14  C1  CA4 A   1      27.633  -1.108   3.018  0.00  0.00    +0.000 C 
ATOM     15  C22 CA4 A   1      28.680  -0.768   1.958  0.00  0.00    +0.000 C 
ATOM     16  C2  CA4 A   1      28.730  -2.119   2.679  0.00  0.00    +0.000 C 
ATOM     17  O3  CA4 A   1      30.769  -3.089   3.446  0.00  0.00    +0.000 OA
ATOM     18 CL6  CA4 A   1      30.808   0.340   6.967  0.00  0.00    +0.000 Cl
ATOM     19  C18 CA4 A   1      24.231   2.553   5.618  0.00  0.00    +0.000 C 
ATOM     20  C15 CA4 A   1      26.430   3.911   6.776  0.00  0.00    +0.000 C 
ATOM     21  C16 CA4 A   1      25.541   5.062   6.282  0.00  0.00    +0.000 C 
ATOM     22  C17 CA4 A   1      25.212   4.747   4.818  0.00  0.00    +0.000 C 
ENDROOT
BRANCH  22  23
ATOM     23  C20 CA4 A   1      23.807   5.211   4.424  0.00  0.00    +0.000 C 
ATOM     24  C21 CA4 A   1      22.681   4.184   4.294  0.00  0.00    +0.000 C 
ATOM     25  O20 CA4 A   1      23.578   6.405   4.240  0.00  0.00    +0.000 OA
ENDBRANCH  22  23
BRANCH  22  26
ATOM     26  O17 CA4 A   1      26.218   5.291   3.955  0.00  0.00    +0.000 OA
BRANCH  26  27
ATOM     27  C23 CA4 A   1      26.863   6.371   4.478  0.00  0.00    +0.000 C 
ATOM     28  C24 CA4 A   1      26.138   7.717   4.514  0.00  0.00    +0.000 C 
ATOM     29  O23 CA4 A   1      28.002   6.270   4.933  0.00  0.00    +0.000 OA
ENDBRANCH  26  27
ENDBRANCH  22  26
TORSDOF 3
ENDMDL
MODEL 2
REMARK VINA RESULT:      -5.2      2.288      7.252
REMARK  Name = ligand_pdbs\CA4.pdb
REMARK  3 active torsions:
REMARK  status: ('A' for Active; 'I' for Inactive)
REMARK    1  A    between atoms: C17_22  and  C20_23
REMARK    2  A    between atoms: C17_22  and  O17_26
REMARK    3  A    between atoms: O17_26  and  C23_27
REMARK                            x       y       z     vdW  Elec       q    Type
REMARK                         _______ _______ _______ _____ _____    ______ ____
ROOT
ATOM      1  C4  CA4 A   1      24.605   5.824   5.007  0.00  0.00    +0.000 C 
ATOM      2  C14 CA4 A   1      27.078   0.775   4.612  0.00  0.00    +0.000 C 
ATOM      3  C5  CA4 A   1      25.212   4.577   5.103  0.00  0.00    +0.000 C 
ATOM      4  C6  CA4 A   1      24.436   3.438   4.901  0.00  0.00    +0.000 C 
ATOM      5  C11 CA4 A   1      28.723   3.013   5.462  0.00  0.00    +0.000 C 
ATOM      6  C7  CA4 A   1      24.977   2.160   5.015  0.00  0.00    +0.000 C 
ATOM      7  C8  CA4 A   1      26.450   1.943   5.375  0.00  0.00    +0.000 C 
ATOM      8  C9  CA4 A   1      27.260   3.199   5.047  0.00  0.00    +0.000 C 
ATOM      9  C10 CA4 A   1      26.611   4.415   5.706  0.00  0.00    +0.000 C 
ATOM     10  C12 CA4 A   1      29.348   1.819   4.733  0.00  0.00    +0.000 C 
ATOM     11  C13 CA4 A   1      28.530   0.561   5.030  0.00  0.00    +0.000 C 
ATOM     12  C3  CA4 A   1      25.312   7.012   5.147  0.00  0.00    +0.000 C 
ATOM     13  C19 CA4 A   1      26.407   4.170   7.204  0.00  0.00    +0.000 C 
ATOM     14  C1  CA4 A   1      27.508   5.648   5.556  0.00  0.00    +0.000 C 
ATOM     15  C22 CA4 A   1      27.570   6.354   4.202  0.00  0.00    +0.000 C 
ATOM     16  C2  CA4 A   1      26.825   7.004   5.372  0.00  0.00    +0.000 C 
ATOM     17  O3  CA4 A   1      24.716   8.087   5.108  0.00  0.00    +0.000 OA
ATOM     18 CL6  CA4 A   1      22.750   3.617   4.552  0.00  0.00    +0.000 Cl
ATOM     19  C18 CA4 A   1      28.625   0.211   6.517  0.00  0.00    +0.000 C 
ATOM     20  C15 CA4 A   1      26.487  -0.615   4.854  0.00  0.00    +0.000 C 
ATOM     21  C16 CA4 A   1      27.628  -1.550   4.430  0.00  0.00    +0.000 C 
ATOM     22  C17 CA4 A   1      28.834  -0.647   4.143  0.00  0.00    +0.000 C 
ENDROOT
BRANCH  22  23
ATOM     23  C20 CA4 A   1      30.161  -1.311   4.519  0.00  0.00    +0.000 C 
ATOM     24  C21 CA4 A   1      30.630  -2.550   3.754  0.00  0.00    +0.000 C 
ATOM     25  O20 CA4 A   1      30.859  -0.837   5.414  0.00  0.00    +0.000 OA
ENDBRANCH  22  23
BRANCH  22  26
ATOM     26  O17 CA4 A   1      28.817  -0.216   2.777  0.00  0.00    +0.000 OA
BRANCH  26  27
ATOM     27  C23 CA4 A   1      27.747  -0.676   2.071  0.00  0.00    +0.000 C 
ATOM     28  C24 CA4 A   1      26.652   0.311   1.664  0.00  0.00    +0.000 C 
ATOM     29  O23 CA4 A   1      27.663  -1.860   1.746  0.00  0.00    +0.000 OA
ENDBRANCH  26  27
ENDBRANCH  22  26
TORSDOF 3
ENDMDL
