MODEL 1
REMARK VINA RESULT:      -1.5      0.000      0.000
REMARK  Name = ligand_pdbs\CA.pdb
REMARK  0 active torsions:
REMARK  status: ('A' for Active; 'I' for Inactive)
REMARK                            x       y       z     vdW  Elec       q    Type
REMARK                         _______ _______ _______ _____ _____    ______ ____
ROOT
ATOM      1 CA   CA  A2107      19.552   9.566   0.526  0.00  0.00    +0.000 Ca
ENDROOT
TORSDOF 0
ENDMDL
MODEL 2
REMARK VINA RESULT:      -1.4      6.027      6.027
REMARK  Name = ligand_pdbs\CA.pdb
REMARK  0 active torsions:
REMARK  status: ('A' for Active; 'I' for Inactive)
REMARK                            x       y       z     vdW  Elec       q    Type
REMARK                         _______ _______ _______ _____ _____    ______ ____
ROOT
ATOM      1 CA   CA  A2107      22.483   9.267   5.784  0.00  0.00    +0.000 Ca
ENDROOT
TORSDOF 0
ENDMDL
MODEL 3
REMARK VINA RESULT:      -1.1      7.125      7.125
REMARK  Name = ligand_pdbs\CA.pdb
REMARK  0 active torsions:
REMARK  status: ('A' for Active; 'I' for Inactive)
REMARK                            x       y       z     vdW  Elec       q    Type
REMARK                         _______ _______ _______ _____ _____    ______ ____
ROOT
ATOM      1 CA   CA  A2107      15.399   4.633   3.558  0.00  0.00    +0.000 Ca
ENDROOT
TORSDOF 0
ENDMDL
MODEL 4
REMARK VINA RESULT:      -1.1     14.907     14.907
REMARK  Name = ligand_pdbs\CA.pdb
REMARK  0 active torsions:
REMARK  status: ('A' for Active; 'I' for Inactive)
REMARK                            x       y       z     vdW  Elec       q    Type
REMARK                         _______ _______ _______ _____ _____    ______ ____
ROOT
ATOM      1 CA   CA  A2107      31.315   0.517   1.924  0.00  0.00    +0.000 Ca
ENDROOT
TORSDOF 0
ENDMDL
MODEL 5
REMARK VINA RESULT:      -1.1      4.544      4.544
REMARK  Name = ligand_pdbs\CA.pdb
REMARK  0 active torsions:
REMARK  status: ('A' for Active; 'I' for Inactive)
REMARK                            x       y       z     vdW  Elec       q    Type
REMARK                         _______ _______ _______ _____ _____    ______ ____
ROOT
ATOM      1 CA   CA  A2107      23.510  11.789   0.322  0.00  0.00    +0.000 Ca
ENDROOT
TORSDOF 0
ENDMDL
MODEL 6
REMARK VINA RESULT:      -1.1     12.815     12.815
REMARK  Name = ligand_pdbs\CA.pdb
REMARK  0 active torsions:
REMARK  status: ('A' for Active; 'I' for Inactive)
REMARK                            x       y       z     vdW  Elec       q    Type
REMARK                         _______ _______ _______ _____ _____    ______ ____
ROOT
ATOM      1 CA   CA  A2107      27.414  12.418  10.235  0.00  0.00    +0.000 Ca
ENDROOT
TORSDOF 0
ENDMDL
MODEL 7
REMARK VINA RESULT:      -1.0      6.947      6.947
REMARK  Name = ligand_pdbs\CA.pdb
REMARK  0 active torsions:
REMARK  status: ('A' for Active; 'I' for Inactive)
REMARK                            x       y       z     vdW  Elec       q    Type
REMARK                         _______ _______ _______ _____ _____    ______ ____
ROOT
ATOM      1 CA   CA  A2107      25.723  10.861   3.443  0.00  0.00    +0.000 Ca
ENDROOT
TORSDOF 0
ENDMDL
MODEL 8
REMARK VINA RESULT:      -1.0     16.215     16.215
REMARK  Name = ligand_pdbs\CA.pdb
REMARK  0 active torsions:
REMARK  status: ('A' for Active; 'I' for Inactive)
REMARK                            x       y       z     vdW  Elec       q    Type
REMARK                         _______ _______ _______ _____ _____    ______ ____
ROOT
ATOM      1 CA   CA  A2107      27.188  -3.938   5.243  0.00  0.00    +0.000 Ca
ENDROOT
TORSDOF 0
ENDMDL
MODEL 9
REMARK VINA RESULT:      -1.0      7.199      7.199
REMARK  Name = ligand_pdbs\CA.pdb
REMARK  0 active torsions:
REMARK  status: ('A' for Active; 'I' for Inactive)
REMARK                            x       y       z     vdW  Elec       q    Type
REMARK                         _______ _______ _______ _____ _____    ______ ____
ROOT
ATOM      1 CA   CA  A2107      24.669  10.577   5.488  0.00  0.00    +0.000 Ca
ENDROOT
TORSDOF 0
ENDMDL
