MODEL 1
REMARK VINA RESULT:      -6.3      0.000      0.000
REMARK  Name = ligand_pdbs\CUX.pdb
REMARK  4 active torsions:
REMARK  status: ('A' for Active; 'I' for Inactive)
REMARK    1  A    between atoms: C6_3  and  NAA_8
REMARK    2  A    between atoms: NAG_12  and  CAK_13
REMARK    3  A    between atoms: CAM_19  and  CAR_20
REMARK    4  A    between atoms: CAR_20  and  CAT_22
REMARK                            x       y       z     vdW  Elec       q    Type
REMARK                         _______ _______ _______ _____ _____    ______ ____
ROOT
ATOM      1  CAK CUX A 700      29.540   1.591   4.872  0.00  0.00    +0.000 C 
ATOM      2  OAL CUX A 700      28.651   1.250   3.841  0.00  0.00    +0.000 OA
ATOM      3  CAP CUX A 700      29.337   0.484   5.863  0.00  0.00    +0.000 C 
ATOM      4  OAQ CUX A 700      30.406   0.422   6.814  0.00  0.00    +0.000 OA
ATOM      5  CAN CUX A 700      29.307  -0.741   4.975  0.00  0.00    +0.000 C 
ATOM      6  OAO CUX A 700      30.617  -1.330   4.801  0.00  0.00    +0.000 OA
ATOM      7  CAM CUX A 700      28.812  -0.166   3.652  0.00  0.00    +0.000 C 
ENDROOT
BRANCH   1  16
ATOM      8  C4  CUX A 700      28.279   3.694   4.675  0.00  0.00    +0.000 C 
ATOM      9  C5  CUX A 700      28.003   4.767   5.425  0.00  0.00    +0.000 C 
ATOM     10  C6  CUX A 700      27.205   5.735   4.911  0.00  0.00    +0.000 C 
ATOM     11  N1  CUX A 700      26.761   5.675   3.647  0.00  0.00    +0.000 NA
ATOM     12  N3  CUX A 700      27.844   3.583   3.417  0.00  0.00    +0.000 NA
ATOM     13  C2  CUX A 700      27.057   4.577   2.844  0.00  0.00    +0.000 C 
ATOM     14  CAI CUX A 700      28.595   4.574   6.617  0.00  0.00    +0.000 C 
ATOM     15  CAH CUX A 700      29.210   3.406   6.594  0.00  0.00    +0.000 C 
ATOM     16  NAG CUX A 700      29.025   2.868   5.385  0.00  0.00    +0.000 N 
BRANCH  10  19
ATOM     17  CBB CUX A 700      24.557   7.287   4.749  0.00  0.00    +0.000 C 
ATOM     18  CBA CUX A 700      25.802   7.580   5.599  0.00  0.00    +0.000 C 
ATOM     19  NAA CUX A 700      26.944   6.851   5.612  0.00  0.00    +0.000 NA
ENDBRANCH  10  19
ENDBRANCH   1  16
BRANCH   7  20
ATOM     20  CAR CUX A 700      27.454  -0.774   3.228  0.00  0.00    +0.000 C 
ATOM     21  OAS CUX A 700      27.564  -1.337   1.906  0.00  0.00    +0.000 OA
BRANCH  20  22
ATOM     22  CAT CUX A 700      26.400   0.178   3.389  0.00  0.00    +0.000 A 
ATOM     23  CAU CUX A 700      26.009   0.516   4.696  0.00  0.00    +0.000 A 
ATOM     24  CAV CUX A 700      24.998   1.427   4.948  0.00  0.00    +0.000 A 
ATOM     25  CAW CUX A 700      24.346   2.023   3.892  0.00  0.00    +0.000 A 
ATOM     26 CLA  CUX A 700      23.102   3.139   4.226  0.00  0.00    +0.000 Cl
ATOM     27  CAX CUX A 700      24.711   1.716   2.579  0.00  0.00    +0.000 A 
ATOM     28  CAY CUX A 700      25.732   0.790   2.320  0.00  0.00    +0.000 A 
ENDBRANCH  20  22
ENDBRANCH   7  20
TORSDOF 4
ENDMDL
MODEL 2
REMARK VINA RESULT:      -5.9      1.649      2.556
REMARK  Name = ligand_pdbs\CUX.pdb
REMARK  4 active torsions:
REMARK  status: ('A' for Active; 'I' for Inactive)
REMARK    1  A    between atoms: C6_3  and  NAA_8
REMARK    2  A    between atoms: NAG_12  and  CAK_13
REMARK    3  A    between atoms: CAM_19  and  CAR_20
REMARK    4  A    between atoms: CAR_20  and  CAT_22
REMARK                            x       y       z     vdW  Elec       q    Type
REMARK                         _______ _______ _______ _____ _____    ______ ____
ROOT
ATOM      1  CAK CUX A 700      29.481   3.014   5.115  0.00  0.00    +0.000 C 
ATOM      2  OAL CUX A 700      29.279   1.908   4.276  0.00  0.00    +0.000 OA
ATOM      3  CAP CUX A 700      29.229   2.446   6.480  0.00  0.00    +0.000 C 
ATOM      4  OAQ CUX A 700      29.743   3.296   7.511  0.00  0.00    +0.000 OA
ATOM      5  CAN CUX A 700      29.969   1.127   6.421  0.00  0.00    +0.000 C 
ATOM      6  OAO CUX A 700      31.337   1.241   6.877  0.00  0.00    +0.000 OA
ATOM      7  CAM CUX A 700      29.940   0.810   4.929  0.00  0.00    +0.000 C 
ENDROOT
BRANCH   1  16
ATOM      8  C4  CUX A 700      27.204   3.940   5.231  0.00  0.00    +0.000 C 
ATOM      9  C5  CUX A 700      26.488   4.909   4.649  0.00  0.00    +0.000 C 
ATOM     10  C6  CUX A 700      25.208   5.106   5.049  0.00  0.00    +0.000 C 
ATOM     11  N1  CUX A 700      24.627   4.299   5.948  0.00  0.00    +0.000 NA
ATOM     12  N3  CUX A 700      26.672   3.123   6.145  0.00  0.00    +0.000 NA
ATOM     13  C2  CUX A 700      25.348   3.270   6.548  0.00  0.00    +0.000 C 
ATOM     14  CAI CUX A 700      27.305   5.527   3.778  0.00  0.00    +0.000 C 
ATOM     15  CAH CUX A 700      28.491   4.952   3.835  0.00  0.00    +0.000 C 
ATOM     16  NAG CUX A 700      28.424   3.959   4.727  0.00  0.00    +0.000 N 
BRANCH  10  19
ATOM     17  CBB CUX A 700      25.401   8.119   5.624  0.00  0.00    +0.000 C 
ATOM     18  CBA CUX A 700      24.475   7.375   4.650  0.00  0.00    +0.000 C 
ATOM     19  NAA CUX A 700      24.441   6.035   4.455  0.00  0.00    +0.000 NA
ENDBRANCH  10  19
ENDBRANCH   1  16
BRANCH   7  20
ATOM     20  CAR CUX A 700      29.162  -0.494   4.629  0.00  0.00    +0.000 C 
ATOM     21  OAS CUX A 700      29.906  -1.299   3.693  0.00  0.00    +0.000 OA
BRANCH  20  22
ATOM     22  CAT CUX A 700      27.819  -0.204   4.237  0.00  0.00    +0.000 A 
ATOM     23  CAU CUX A 700      27.583   0.153   2.899  0.00  0.00    +0.000 A 
ATOM     24  CAV CUX A 700      26.315   0.450   2.429  0.00  0.00    +0.000 A 
ATOM     25  CAW CUX A 700      25.246   0.403   3.295  0.00  0.00    +0.000 A 
ATOM     26 CLA  CUX A 700      23.695   0.778   2.698  0.00  0.00    +0.000 Cl
ATOM     27  CAX CUX A 700      25.441   0.047   4.632  0.00  0.00    +0.000 A 
ATOM     28  CAY CUX A 700      26.725  -0.251   5.111  0.00  0.00    +0.000 A 
ENDBRANCH  20  22
ENDBRANCH   7  20
TORSDOF 4
ENDMDL
MODEL 3
REMARK VINA RESULT:      -5.9      3.259      6.665
REMARK  Name = ligand_pdbs\CUX.pdb
REMARK  4 active torsions:
REMARK  status: ('A' for Active; 'I' for Inactive)
REMARK    1  A    between atoms: C6_3  and  NAA_8
REMARK    2  A    between atoms: NAG_12  and  CAK_13
REMARK    3  A    between atoms: CAM_19  and  CAR_20
REMARK    4  A    between atoms: CAR_20  and  CAT_22
REMARK                            x       y       z     vdW  Elec       q    Type
REMARK                         _______ _______ _______ _____ _____    ______ ____
ROOT
ATOM      1  CAK CUX A 700      25.193   3.600   3.484  0.00  0.00    +0.000 C 
ATOM      2  OAL CUX A 700      26.437   4.064   3.938  0.00  0.00    +0.000 OA
ATOM      3  CAP CUX A 700      24.283   3.913   4.634  0.00  0.00    +0.000 C 
ATOM      4  OAQ CUX A 700      22.905   3.872   4.245  0.00  0.00    +0.000 OA
ATOM      5  CAN CUX A 700      24.715   5.313   5.015  0.00  0.00    +0.000 C 
ATOM      6  OAO CUX A 700      23.957   6.332   4.322  0.00  0.00    +0.000 OA
ATOM      7  CAM CUX A 700      26.168   5.337   4.551  0.00  0.00    +0.000 C 
ENDROOT
BRANCH   1  16
ATOM      8  C4  CUX A 700      26.566   1.573   3.241  0.00  0.00    +0.000 C 
ATOM      9  C5  CUX A 700      26.385   0.256   3.088  0.00  0.00    +0.000 C 
ATOM     10  C6  CUX A 700      27.473  -0.549   3.017  0.00  0.00    +0.000 C 
ATOM     11  N1  CUX A 700      28.716  -0.043   3.014  0.00  0.00    +0.000 NA
ATOM     12  N3  CUX A 700      27.785   2.119   3.261  0.00  0.00    +0.000 NA
ATOM     13  C2  CUX A 700      28.923   1.326   3.150  0.00  0.00    +0.000 C 
ATOM     14  CAI CUX A 700      25.058   0.041   3.094  0.00  0.00    +0.000 C 
ATOM     15  CAH CUX A 700      24.447   1.200   3.255  0.00  0.00    +0.000 C 
ATOM     16  NAG CUX A 700      25.383   2.151   3.333  0.00  0.00    +0.000 N 
BRANCH  10  19
ATOM     17  CBB CUX A 700      27.063  -2.603   5.266  0.00  0.00    +0.000 C 
ATOM     18  CBA CUX A 700      27.143  -2.829   3.749  0.00  0.00    +0.000 C 
ATOM     19  NAA CUX A 700      27.336  -1.869   2.813  0.00  0.00    +0.000 NA
ENDBRANCH  10  19
ENDBRANCH   1  16
BRANCH   7  20
ATOM     20  CAR CUX A 700      27.148   5.544   5.730  0.00  0.00    +0.000 C 
ATOM     21  OAS CUX A 700      28.015   6.661   5.452  0.00  0.00    +0.000 OA
BRANCH  20  22
ATOM     22  CAT CUX A 700      27.823   4.325   6.049  0.00  0.00    +0.000 A 
ATOM     23  CAU CUX A 700      29.196   4.236   5.763  0.00  0.00    +0.000 A 
ATOM     24  CAV CUX A 700      29.932   3.096   6.036  0.00  0.00    +0.000 A 
ATOM     25  CAW CUX A 700      29.306   2.007   6.601  0.00  0.00    +0.000 A 
ATOM     26 CLA  CUX A 700      30.229   0.612   6.924  0.00  0.00    +0.000 Cl
ATOM     27  CAX CUX A 700      27.943   2.061   6.902  0.00  0.00    +0.000 A 
ATOM     28  CAY CUX A 700      27.195   3.213   6.623  0.00  0.00    +0.000 A 
ENDBRANCH  20  22
ENDBRANCH   7  20
TORSDOF 4
ENDMDL
MODEL 4
REMARK VINA RESULT:      -4.9      3.173      6.718
REMARK  Name = ligand_pdbs\CUX.pdb
REMARK  4 active torsions:
REMARK  status: ('A' for Active; 'I' for Inactive)
REMARK    1  A    between atoms: C6_3  and  NAA_8
REMARK    2  A    between atoms: NAG_12  and  CAK_13
REMARK    3  A    between atoms: CAM_19  and  CAR_20
REMARK    4  A    between atoms: CAR_20  and  CAT_22
REMARK                            x       y       z     vdW  Elec       q    Type
REMARK                         _______ _______ _______ _____ _____    ______ ____
ROOT
ATOM      1  CAK CUX A 700      25.640   2.282   3.548  0.00  0.00    +0.000 C 
ATOM      2  OAL CUX A 700      26.230   3.403   2.944  0.00  0.00    +0.000 OA
ATOM      3  CAP CUX A 700      25.555   2.687   4.989  0.00  0.00    +0.000 C 
ATOM      4  OAQ CUX A 700      24.648   1.855   5.720  0.00  0.00    +0.000 OA
ATOM      5  CAN CUX A 700      25.054   4.112   4.893  0.00  0.00    +0.000 C 
ATOM      6  OAO CUX A 700      23.610   4.193   4.933  0.00  0.00    +0.000 OA
ATOM      7  CAM CUX A 700      25.564   4.540   3.521  0.00  0.00    +0.000 C 
ENDROOT
BRANCH   1  16
ATOM      8  C4  CUX A 700      27.658   1.009   4.148  0.00  0.00    +0.000 C 
ATOM      9  C5  CUX A 700      28.364  -0.025   3.678  0.00  0.00    +0.000 C 
ATOM     10  C6  CUX A 700      29.454  -0.441   4.369  0.00  0.00    +0.000 C 
ATOM     11  N1  CUX A 700      29.881   0.215   5.458  0.00  0.00    +0.000 NA
ATOM     12  N3  CUX A 700      28.035   1.681   5.240  0.00  0.00    +0.000 NA
ATOM     13  C2  CUX A 700      29.172   1.308   5.950  0.00  0.00    +0.000 C 
ATOM     14  CAI CUX A 700      27.732  -0.460   2.574  0.00  0.00    +0.000 C 
ATOM     15  CAH CUX A 700      26.662   0.289   2.383  0.00  0.00    +0.000 C 
ATOM     16  NAG CUX A 700      26.625   1.208   3.352  0.00  0.00    +0.000 N 
BRANCH  10  19
ATOM     17  CBB CUX A 700      28.424  -3.289   3.845  0.00  0.00    +0.000 C 
ATOM     18  CBA CUX A 700      29.834  -2.714   3.641  0.00  0.00    +0.000 C 
ATOM     19  NAA CUX A 700      30.219  -1.443   3.904  0.00  0.00    +0.000 NA
ENDBRANCH  10  19
ENDBRANCH   1  16
BRANCH   7  20
ATOM     20  CAR CUX A 700      26.567   5.714   3.616  0.00  0.00    +0.000 C 
ATOM     21  OAS CUX A 700      27.867   5.215   3.984  0.00  0.00    +0.000 OA
BRANCH  20  22
ATOM     22  CAT CUX A 700      26.058   6.748   4.463  0.00  0.00    +0.000 A 
ATOM     23  CAU CUX A 700      24.738   7.181   4.256  0.00  0.00    +0.000 A 
ATOM     24  CAV CUX A 700      24.161   8.175   5.027  0.00  0.00    +0.000 A 
ATOM     25  CAW CUX A 700      24.899   8.769   6.026  0.00  0.00    +0.000 A 
ATOM     26 CLA  CUX A 700      24.172   9.995   6.960  0.00  0.00    +0.000 Cl
ATOM     27  CAX CUX A 700      26.214   8.361   6.263  0.00  0.00    +0.000 A 
ATOM     28  CAY CUX A 700      26.802   7.356   5.482  0.00  0.00    +0.000 A 
ENDBRANCH  20  22
ENDBRANCH   7  20
TORSDOF 4
ENDMDL
MODEL 5
REMARK VINA RESULT:      -4.7      3.158      6.800
REMARK  Name = ligand_pdbs\CUX.pdb
REMARK  4 active torsions:
REMARK  status: ('A' for Active; 'I' for Inactive)
REMARK    1  A    between atoms: C6_3  and  NAA_8
REMARK    2  A    between atoms: NAG_12  and  CAK_13
REMARK    3  A    between atoms: CAM_19  and  CAR_20
REMARK    4  A    between atoms: CAR_20  and  CAT_22
REMARK                            x       y       z     vdW  Elec       q    Type
REMARK                         _______ _______ _______ _____ _____    ______ ____
ROOT
ATOM      1  CAK CUX A 700      26.327   1.882   4.433  0.00  0.00    +0.000 C 
ATOM      2  OAL CUX A 700      26.221   2.882   3.454  0.00  0.00    +0.000 OA
ATOM      3  CAP CUX A 700      26.832   2.638   5.625  0.00  0.00    +0.000 C 
ATOM      4  OAQ CUX A 700      26.655   1.896   6.837  0.00  0.00    +0.000 OA
ATOM      5  CAN CUX A 700      25.974   3.885   5.603  0.00  0.00    +0.000 C 
ATOM      6  OAO CUX A 700      24.766   3.738   6.386  0.00  0.00    +0.000 OA
ATOM      7  CAM CUX A 700      25.626   4.007   4.123  0.00  0.00    +0.000 C 
ENDROOT
BRANCH   1  16
ATOM      8  C4  CUX A 700      27.365  -0.329   4.137  0.00  0.00    +0.000 C 
ATOM      9  C5  CUX A 700      28.438  -0.857   3.538  0.00  0.00    +0.000 C 
ATOM     10  C6  CUX A 700      28.630  -2.197   3.604  0.00  0.00    +0.000 C 
ATOM     11  N1  CUX A 700      27.816  -2.984   4.324  0.00  0.00    +0.000 NA
ATOM     12  N3  CUX A 700      26.517  -1.076   4.850  0.00  0.00    +0.000 NA
ATOM     13  C2  CUX A 700      26.707  -2.449   4.973  0.00  0.00    +0.000 C 
ATOM     14  CAI CUX A 700      29.082   0.154   2.928  0.00  0.00    +0.000 C 
ATOM     15  CAH CUX A 700      28.410   1.269   3.145  0.00  0.00    +0.000 C 
ATOM     16  NAG CUX A 700      27.352   0.971   3.906  0.00  0.00    +0.000 N 
BRANCH  10  19
ATOM     17  CBB CUX A 700      31.479  -1.836   4.699  0.00  0.00    +0.000 C 
ATOM     18  CBA CUX A 700      31.001  -2.655   3.491  0.00  0.00    +0.000 C 
ATOM     19  NAA CUX A 700      29.721  -2.761   3.060  0.00  0.00    +0.000 NA
ENDBRANCH  10  19
ENDBRANCH   1  16
BRANCH   7  20
ATOM     20  CAR CUX A 700      26.182   5.312   3.503  0.00  0.00    +0.000 C 
ATOM     21  OAS CUX A 700      27.592   5.167   3.249  0.00  0.00    +0.000 OA
BRANCH  20  22
ATOM     22  CAT CUX A 700      25.828   6.443   4.302  0.00  0.00    +0.000 A 
ATOM     23  CAU CUX A 700      24.478   6.833   4.334  0.00  0.00    +0.000 A 
ATOM     24  CAV CUX A 700      24.044   7.916   5.079  0.00  0.00    +0.000 A 
ATOM     25  CAW CUX A 700      24.956   8.643   5.810  0.00  0.00    +0.000 A 
ATOM     26 CLA  CUX A 700      24.400   9.975   6.716  0.00  0.00    +0.000 Cl
ATOM     27  CAX CUX A 700      26.306   8.282   5.805  0.00  0.00    +0.000 A 
ATOM     28  CAY CUX A 700      26.750   7.188   5.049  0.00  0.00    +0.000 A 
ENDBRANCH  20  22
ENDBRANCH   7  20
TORSDOF 4
ENDMDL
MODEL 6
REMARK VINA RESULT:      -4.1      2.881      6.187
REMARK  Name = ligand_pdbs\CUX.pdb
REMARK  4 active torsions:
REMARK  status: ('A' for Active; 'I' for Inactive)
REMARK    1  A    between atoms: C6_3  and  NAA_8
REMARK    2  A    between atoms: NAG_12  and  CAK_13
REMARK    3  A    between atoms: CAM_19  and  CAR_20
REMARK    4  A    between atoms: CAR_20  and  CAT_22
REMARK                            x       y       z     vdW  Elec       q    Type
REMARK                         _______ _______ _______ _____ _____    ______ ____
ROOT
ATOM      1  CAK CUX A 700      25.722   1.976   4.392  0.00  0.00    +0.000 C 
ATOM      2  OAL CUX A 700      26.401   2.803   3.484  0.00  0.00    +0.000 OA
ATOM      3  CAP CUX A 700      25.180   2.954   5.390  0.00  0.00    +0.000 C 
ATOM      4  OAQ CUX A 700      24.143   2.375   6.191  0.00  0.00    +0.000 OA
ATOM      5  CAN CUX A 700      24.650   4.060   4.503  0.00  0.00    +0.000 C 
ATOM      6  OAO CUX A 700      23.260   3.867   4.151  0.00  0.00    +0.000 OA
ATOM      7  CAM CUX A 700      25.527   3.923   3.262  0.00  0.00    +0.000 C 
ENDROOT
BRANCH   1  16
ATOM      8  C4  CUX A 700      27.860   1.633   5.559  0.00  0.00    +0.000 C 
ATOM      9  C5  CUX A 700      28.625   0.612   5.964  0.00  0.00    +0.000 C 
ATOM     10  C6  CUX A 700      29.774   0.881   6.630  0.00  0.00    +0.000 C 
ATOM     11  N1  CUX A 700      30.195   2.142   6.815  0.00  0.00    +0.000 NA
ATOM     12  N3  CUX A 700      28.230   2.904   5.737  0.00  0.00    +0.000 NA
ATOM     13  C2  CUX A 700      29.424   3.216   6.381  0.00  0.00    +0.000 C 
ATOM     14  CAI CUX A 700      27.981  -0.518   5.623  0.00  0.00    +0.000 C 
ATOM     15  CAH CUX A 700      26.847  -0.191   5.032  0.00  0.00    +0.000 C 
ATOM     16  NAG CUX A 700      26.779   1.143   4.981  0.00  0.00    +0.000 N 
BRANCH  10  19
ATOM     17  CBB CUX A 700      32.839   1.019   6.444  0.00  0.00    +0.000 C 
ATOM     18  CBA CUX A 700      31.949  -0.119   6.966  0.00  0.00    +0.000 C 
ATOM     19  NAA CUX A 700      30.595  -0.112   7.009  0.00  0.00    +0.000 NA
ENDBRANCH  10  19
ENDBRANCH   1  16
BRANCH   7  20
ATOM     20  CAR CUX A 700      26.383   5.188   3.016  0.00  0.00    +0.000 C 
ATOM     21  OAS CUX A 700      27.781   4.837   3.015  0.00  0.00    +0.000 OA
BRANCH  20  22
ATOM     22  CAT CUX A 700      26.027   6.228   3.930  0.00  0.00    +0.000 A 
ATOM     23  CAU CUX A 700      24.770   6.837   3.779  0.00  0.00    +0.000 A 
ATOM     24  CAV CUX A 700      24.339   7.852   4.616  0.00  0.00    +0.000 A 
ATOM     25  CAW CUX A 700      25.164   8.288   5.629  0.00  0.00    +0.000 A 
ATOM     26 CLA  CUX A 700      24.616   9.541   6.645  0.00  0.00    +0.000 Cl
ATOM     27  CAX CUX A 700      26.419   7.702   5.812  0.00  0.00    +0.000 A 
ATOM     28  CAY CUX A 700      26.859   6.677   4.963  0.00  0.00    +0.000 A 
ENDBRANCH  20  22
ENDBRANCH   7  20
TORSDOF 4
ENDMDL
MODEL 7
REMARK VINA RESULT:      -3.9      2.759      4.626
REMARK  Name = ligand_pdbs\CUX.pdb
REMARK  4 active torsions:
REMARK  status: ('A' for Active; 'I' for Inactive)
REMARK    1  A    between atoms: C6_3  and  NAA_8
REMARK    2  A    between atoms: NAG_12  and  CAK_13
REMARK    3  A    between atoms: CAM_19  and  CAR_20
REMARK    4  A    between atoms: CAR_20  and  CAT_22
REMARK                            x       y       z     vdW  Elec       q    Type
REMARK                         _______ _______ _______ _____ _____    ______ ____
ROOT
ATOM      1  CAK CUX A 700      24.829   2.160   3.864  0.00  0.00    +0.000 C 
ATOM      2  OAL CUX A 700      25.224   1.499   5.037  0.00  0.00    +0.000 OA
ATOM      3  CAP CUX A 700      26.055   2.073   3.006  0.00  0.00    +0.000 C 
ATOM      4  OAQ CUX A 700      25.759   2.347   1.631  0.00  0.00    +0.000 OA
ATOM      5  CAN CUX A 700      26.490   0.638   3.209  0.00  0.00    +0.000 C 
ATOM      6  OAO CUX A 700      25.914  -0.258   2.230  0.00  0.00    +0.000 OA
ATOM      7  CAM CUX A 700      25.930   0.327   4.594  0.00  0.00    +0.000 C 
ENDROOT
BRANCH   1  16
ATOM      8  C4  CUX A 700      25.532   4.393   4.620  0.00  0.00    +0.000 C 
ATOM      9  C5  CUX A 700      24.965   5.547   4.990  0.00  0.00    +0.000 C 
ATOM     10  C6  CUX A 700      25.764   6.590   5.323  0.00  0.00    +0.000 C 
ATOM     11  N1  CUX A 700      27.099   6.460   5.369  0.00  0.00    +0.000 NA
ATOM     12  N3  CUX A 700      26.857   4.223   4.633  0.00  0.00    +0.000 NA
ATOM     13  C2  CUX A 700      27.706   5.260   5.009  0.00  0.00    +0.000 C 
ATOM     14  CAI CUX A 700      23.635   5.382   4.880  0.00  0.00    +0.000 C 
ATOM     15  CAH CUX A 700      23.400   4.158   4.445  0.00  0.00    +0.000 C 
ATOM     16  NAG CUX A 700      24.577   3.541   4.297  0.00  0.00    +0.000 N 
BRANCH  10  19
ATOM     17  CBB CUX A 700      26.005   9.250   3.802  0.00  0.00    +0.000 C 
ATOM     18  CBA CUX A 700      25.292   8.953   5.130  0.00  0.00    +0.000 C 
ATOM     19  NAA CUX A 700      25.236   7.750   5.748  0.00  0.00    +0.000 NA
ENDBRANCH  10  19
ENDBRANCH   1  16
BRANCH   7  20
ATOM     20  CAR CUX A 700      27.050   0.001   5.611  0.00  0.00    +0.000 C 
ATOM     21  OAS CUX A 700      27.449   1.203   6.298  0.00  0.00    +0.000 OA
BRANCH  20  22
ATOM     22  CAT CUX A 700      28.116  -0.711   4.980  0.00  0.00    +0.000 A 
ATOM     23  CAU CUX A 700      29.398  -0.134   4.997  0.00  0.00    +0.000 A 
ATOM     24  CAV CUX A 700      30.490  -0.751   4.412  0.00  0.00    +0.000 A 
ATOM     25  CAW CUX A 700      30.324  -1.966   3.786  0.00  0.00    +0.000 A 
ATOM     26 CLA  CUX A 700      31.681  -2.705   3.067  0.00  0.00    +0.000 Cl
ATOM     27  CAX CUX A 700      29.066  -2.572   3.752  0.00  0.00    +0.000 A 
ATOM     28  CAY CUX A 700      27.957  -1.948   4.341  0.00  0.00    +0.000 A 
ENDBRANCH  20  22
ENDBRANCH   7  20
TORSDOF 4
ENDMDL
MODEL 8
REMARK VINA RESULT:      -3.9      2.767      3.986
REMARK  Name = ligand_pdbs\CUX.pdb
REMARK  4 active torsions:
REMARK  status: ('A' for Active; 'I' for Inactive)
REMARK    1  A    between atoms: C6_3  and  NAA_8
REMARK    2  A    between atoms: NAG_12  and  CAK_13
REMARK    3  A    between atoms: CAM_19  and  CAR_20
REMARK    4  A    between atoms: CAR_20  and  CAT_22
REMARK                            x       y       z     vdW  Elec       q    Type
REMARK                         _______ _______ _______ _____ _____    ______ ____
ROOT
ATOM      1  CAK CUX A 700      28.495   4.325   5.017  0.00  0.00    +0.000 C 
ATOM      2  OAL CUX A 700      28.066   3.568   3.916  0.00  0.00    +0.000 OA
ATOM      3  CAP CUX A 700      28.199   3.420   6.176  0.00  0.00    +0.000 C 
ATOM      4  OAQ CUX A 700      28.897   3.828   7.358  0.00  0.00    +0.000 OA
ATOM      5  CAN CUX A 700      28.688   2.080   5.671  0.00  0.00    +0.000 C 
ATOM      6  OAO CUX A 700      30.071   1.832   6.015  0.00  0.00    +0.000 OA
ATOM      7  CAM CUX A 700      28.545   2.235   4.161  0.00  0.00    +0.000 C 
ENDROOT
BRANCH   1  16
ATOM      8  C4  CUX A 700      26.294   5.421   4.949  0.00  0.00    +0.000 C 
ATOM      9  C5  CUX A 700      25.796   6.663   4.943  0.00  0.00    +0.000 C 
ATOM     10  C6  CUX A 700      24.451   6.828   4.925  0.00  0.00    +0.000 C 
ATOM     11  N1  CUX A 700      23.621   5.778   4.828  0.00  0.00    +0.000 NA
ATOM     12  N3  CUX A 700      25.505   4.346   4.872  0.00  0.00    +0.000 NA
ATOM     13  C2  CUX A 700      24.121   4.479   4.811  0.00  0.00    +0.000 C 
ATOM     14  CAI CUX A 700      26.843   7.504   5.013  0.00  0.00    +0.000 C 
ATOM     15  CAH CUX A 700      27.951   6.789   5.069  0.00  0.00    +0.000 C 
ATOM     16  NAG CUX A 700      27.610   5.498   5.015  0.00  0.00    +0.000 N 
BRANCH  10  19
ATOM     17  CBB CUX A 700      24.977   9.035   6.997  0.00  0.00    +0.000 C 
ATOM     18  CBA CUX A 700      24.104   9.079   5.734  0.00  0.00    +0.000 C 
ATOM     19  NAA CUX A 700      23.911   8.056   4.867  0.00  0.00    +0.000 NA
ENDBRANCH  10  19
ENDBRANCH   1  16
BRANCH   7  20
ATOM     20  CAR CUX A 700      27.536   1.222   3.568  0.00  0.00    +0.000 C 
ATOM     21  OAS CUX A 700      26.257   1.374   4.215  0.00  0.00    +0.000 OA
BRANCH  20  22
ATOM     22  CAT CUX A 700      28.070  -0.103   3.597  0.00  0.00    +0.000 A 
ATOM     23  CAU CUX A 700      29.419  -0.279   3.242  0.00  0.00    +0.000 A 
ATOM     24  CAV CUX A 700      30.022  -1.525   3.241  0.00  0.00    +0.000 A 
ATOM     25  CAW CUX A 700      29.284  -2.633   3.592  0.00  0.00    +0.000 A 
ATOM     26 CLA  CUX A 700      30.045  -4.158   3.579  0.00  0.00    +0.000 Cl
ATOM     27  CAX CUX A 700      27.942  -2.496   3.955  0.00  0.00    +0.000 A 
ATOM     28  CAY CUX A 700      27.327  -1.235   3.953  0.00  0.00    +0.000 A 
ENDBRANCH  20  22
ENDBRANCH   7  20
TORSDOF 4
ENDMDL
MODEL 9
REMARK VINA RESULT:      -3.9      3.001      5.702
REMARK  Name = ligand_pdbs\CUX.pdb
REMARK  4 active torsions:
REMARK  status: ('A' for Active; 'I' for Inactive)
REMARK    1  A    between atoms: C6_3  and  NAA_8
REMARK    2  A    between atoms: NAG_12  and  CAK_13
REMARK    3  A    between atoms: CAM_19  and  CAR_20
REMARK    4  A    between atoms: CAR_20  and  CAT_22
REMARK                            x       y       z     vdW  Elec       q    Type
REMARK                         _______ _______ _______ _____ _____    ______ ____
ROOT
ATOM      1  CAK CUX A 700      26.986   4.734   6.226  0.00  0.00    +0.000 C 
ATOM      2  OAL CUX A 700      25.834   4.041   5.824  0.00  0.00    +0.000 OA
ATOM      3  CAP CUX A 700      27.145   5.766   5.150  0.00  0.00    +0.000 C 
ATOM      4  OAQ CUX A 700      28.030   6.818   5.551  0.00  0.00    +0.000 OA
ATOM      5  CAN CUX A 700      25.727   6.265   4.972  0.00  0.00    +0.000 C 
ATOM      6  OAO CUX A 700      25.430   7.400   5.819  0.00  0.00    +0.000 OA
ATOM      7  CAM CUX A 700      24.905   5.057   5.410  0.00  0.00    +0.000 C 
ENDROOT
BRANCH   1  16
ATOM      8  C4  CUX A 700      27.831   2.432   6.025  0.00  0.00    +0.000 C 
ATOM      9  C5  CUX A 700      29.009   1.796   6.025  0.00  0.00    +0.000 C 
ATOM     10  C6  CUX A 700      29.025   0.452   5.852  0.00  0.00    +0.000 C 
ATOM     11  N1  CUX A 700      27.888  -0.254   5.766  0.00  0.00    +0.000 NA
ATOM     12  N3  CUX A 700      26.674   1.772   5.925  0.00  0.00    +0.000 NA
ATOM     13  C2  CUX A 700      26.652   0.387   5.788  0.00  0.00    +0.000 C 
ATOM     14  CAI CUX A 700      29.960   2.737   6.157  0.00  0.00    +0.000 C 
ATOM     15  CAH CUX A 700      29.375   3.918   6.228  0.00  0.00    +0.000 C 
ATOM     16  NAG CUX A 700      28.054   3.726   6.160  0.00  0.00    +0.000 N 
BRANCH  10  19
ATOM     17  CBB CUX A 700      29.960  -1.488   3.659  0.00  0.00    +0.000 C 
ATOM     18  CBA CUX A 700      30.662  -1.091   4.966  0.00  0.00    +0.000 C 
ATOM     19  NAA CUX A 700      30.181  -0.230   5.895  0.00  0.00    +0.000 NA
ENDBRANCH  10  19
ENDBRANCH   1  16
BRANCH   7  20
ATOM     20  CAR CUX A 700      24.034   4.501   4.258  0.00  0.00    +0.000 C 
ATOM     21  OAS CUX A 700      22.667   4.379   4.697  0.00  0.00    +0.000 OA
BRANCH  20  22
ATOM     22  CAT CUX A 700      24.603   3.303   3.725  0.00  0.00    +0.000 A 
ATOM     23  CAU CUX A 700      25.862   3.388   3.107  0.00  0.00    +0.000 A 
ATOM     24  CAV CUX A 700      26.491   2.281   2.563  0.00  0.00    +0.000 A 
ATOM     25  CAW CUX A 700      25.867   1.055   2.618  0.00  0.00    +0.000 A 
ATOM     26 CLA  CUX A 700      26.655  -0.293   1.937  0.00  0.00    +0.000 Cl
ATOM     27  CAX CUX A 700      24.616   0.932   3.228  0.00  0.00    +0.000 A 
ATOM     28  CAY CUX A 700      23.975   2.052   3.777  0.00  0.00    +0.000 A 
ENDBRANCH  20  22
ENDBRANCH   7  20
TORSDOF 4
ENDMDL
