MODEL 1
REMARK VINA RESULT:      -8.0      0.000      0.000
REMARK  Name = ligand_pdbs\D29.pdb
REMARK  7 active torsions:
REMARK  status: ('A' for Active; 'I' for Inactive)
REMARK    1  A    between atoms: C7_2  and  C6_5
REMARK    2  A    between atoms: C4_8  and  S1_15
REMARK    3  A    between atoms: C2_10  and  C8_11
REMARK    4  A    between atoms: S1_15  and  C9_17
REMARK    5  A    between atoms: C10_18  and  C11_19
REMARK    6  A    between atoms: C11_19  and  C12_20
REMARK    7  A    between atoms: C12_20  and  N_21
REMARK                            x       y       z     vdW  Elec       q    Type
REMARK                         _______ _______ _______ _____ _____    ______ ____
ROOT
ATOM      1  C6  D29 C1101      28.169  -0.848   4.421  0.00  0.00    +0.000 A 
ATOM      2  C1  D29 C1101      29.173  -0.156   5.058  0.00  0.00    +0.000 A 
ATOM      3  C5  D29 C1101      26.915  -0.328   4.217  0.00  0.00    +0.000 A 
ATOM      4  C4  D29 C1101      26.625   0.923   4.696  0.00  0.00    +0.000 A 
ATOM      5  C3  D29 C1101      27.625   1.665   5.351  0.00  0.00    +0.000 A 
ATOM      6  C2  D29 C1101      28.892   1.097   5.551  0.00  0.00    +0.000 A 
ENDROOT
BRANCH   1   8
ATOM      7  F6  D29 C1101      28.078  -2.271   2.629  0.00  0.00    +0.000 F 
ATOM      8  C7  D29 C1101      28.427  -2.191   3.884  0.00  0.00    +0.000 C 
ATOM      9  F4  D29 C1101      29.722  -2.422   3.922  0.00  0.00    +0.000 F 
ATOM     10  F5  D29 C1101      27.710  -2.999   4.650  0.00  0.00    +0.000 F 
ENDBRANCH   1   8
BRANCH   6  11
ATOM     11  C8  D29 C1101      30.001   1.834   6.235  0.00  0.00    +0.000 C 
ATOM     12  F3  D29 C1101      29.557   2.895   6.886  0.00  0.00    +0.000 F 
ATOM     13  F2  D29 C1101      30.993   2.170   5.438  0.00  0.00    +0.000 F 
ATOM     14  F1  D29 C1101      30.472   0.982   7.097  0.00  0.00    +0.000 F 
ENDBRANCH   6  11
BRANCH   4  15
ATOM     15  S1  D29 C1101      25.083   1.386   4.385  0.00  0.00    +0.000 S 
ATOM     16  O   D29 C1101      25.299   1.649   2.945  0.00  0.00    +0.000 OA
BRANCH  15  17
ATOM     17  C9  D29 C1101      24.933   2.847   5.030  0.00  0.00    +0.000 C 
ATOM     18  C10 D29 C1101      24.124   3.726   4.444  0.00  0.00    +0.000 C 
BRANCH  18  19
ATOM     19  C11 D29 C1101      23.938   5.113   4.996  0.00  0.00    +0.000 C 
BRANCH  19  20
ATOM     20  C12 D29 C1101      24.745   6.140   4.203  0.00  0.00    +0.000 C 
BRANCH  20  21
ATOM     21  N   D29 C1101      25.707   6.844   5.053  0.00  0.00    +0.000 NA
ATOM     22  C13 D29 C1101      26.943   6.579   5.127  0.00  0.00    +0.000 C 
ATOM     23  S2  D29 C1101      27.692   5.330   4.259  0.00  0.00    +0.000 S 
ENDBRANCH  20  21
ENDBRANCH  19  20
ENDBRANCH  18  19
ENDBRANCH  15  17
ENDBRANCH   4  15
TORSDOF 7
ENDMDL
MODEL 2
REMARK VINA RESULT:      -7.7      0.548      3.513
REMARK  Name = ligand_pdbs\D29.pdb
REMARK  7 active torsions:
REMARK  status: ('A' for Active; 'I' for Inactive)
REMARK    1  A    between atoms: C7_2  and  C6_5
REMARK    2  A    between atoms: C4_8  and  S1_15
REMARK    3  A    between atoms: C2_10  and  C8_11
REMARK    4  A    between atoms: S1_15  and  C9_17
REMARK    5  A    between atoms: C10_18  and  C11_19
REMARK    6  A    between atoms: C11_19  and  C12_20
REMARK    7  A    between atoms: C12_20  and  N_21
REMARK                            x       y       z     vdW  Elec       q    Type
REMARK                         _______ _______ _______ _____ _____    ______ ____
ROOT
ATOM      1  C6  D29 C1101      28.384   1.185   5.371  0.00  0.00    +0.000 A 
ATOM      2  C1  D29 C1101      28.824  -0.052   4.964  0.00  0.00    +0.000 A 
ATOM      3  C5  D29 C1101      27.095   1.620   5.185  0.00  0.00    +0.000 A 
ATOM      4  C4  D29 C1101      26.205   0.808   4.533  0.00  0.00    +0.000 A 
ATOM      5  C3  D29 C1101      26.615  -0.467   4.101  0.00  0.00    +0.000 A 
ATOM      6  C2  D29 C1101      27.943  -0.873   4.299  0.00  0.00    +0.000 A 
ENDROOT
BRANCH   1   8
ATOM      7  F6  D29 C1101      30.146   2.644   5.255  0.00  0.00    +0.000 F 
ATOM      8  C7  D29 C1101      29.296   2.094   6.080  0.00  0.00    +0.000 C 
ATOM      9  F4  D29 C1101      28.596   3.079   6.599  0.00  0.00    +0.000 F 
ATOM     10  F5  D29 C1101      29.900   1.328   6.974  0.00  0.00    +0.000 F 
ENDBRANCH   1   8
BRANCH   6  11
ATOM     11  C8  D29 C1101      28.441  -2.217   3.870  0.00  0.00    +0.000 C 
ATOM     12  F3  D29 C1101      27.852  -3.195   4.536  0.00  0.00    +0.000 F 
ATOM     13  F2  D29 C1101      29.749  -2.349   3.929  0.00  0.00    +0.000 F 
ATOM     14  F1  D29 C1101      28.103  -2.302   2.617  0.00  0.00    +0.000 F 
ENDBRANCH   6  11
BRANCH   4  15
ATOM     15  S1  D29 C1101      24.718   1.483   4.376  0.00  0.00    +0.000 S 
ATOM     16  O   D29 C1101      24.804   1.682   2.912  0.00  0.00    +0.000 OA
BRANCH  15  17
ATOM     17  C9  D29 C1101      24.849   2.963   4.979  0.00  0.00    +0.000 C 
ATOM     18  C10 D29 C1101      24.032   3.912   4.531  0.00  0.00    +0.000 C 
BRANCH  18  19
ATOM     19  C11 D29 C1101      24.101   5.321   5.052  0.00  0.00    +0.000 C 
BRANCH  19  20
ATOM     20  C12 D29 C1101      25.099   6.161   4.256  0.00  0.00    +0.000 C 
BRANCH  20  21
ATOM     21  N   D29 C1101      26.302   6.454   5.036  0.00  0.00    +0.000 NA
ATOM     22  C13 D29 C1101      27.449   5.962   4.819  0.00  0.00    +0.000 C 
ATOM     23  S2  D29 C1101      27.776   4.848   3.584  0.00  0.00    +0.000 S 
ENDBRANCH  20  21
ENDBRANCH  19  20
ENDBRANCH  18  19
ENDBRANCH  15  17
ENDBRANCH   4  15
TORSDOF 7
ENDMDL
MODEL 3
REMARK VINA RESULT:      -7.3      4.157      6.403
REMARK  Name = ligand_pdbs\D29.pdb
REMARK  7 active torsions:
REMARK  status: ('A' for Active; 'I' for Inactive)
REMARK    1  A    between atoms: C7_2  and  C6_5
REMARK    2  A    between atoms: C4_8  and  S1_15
REMARK    3  A    between atoms: C2_10  and  C8_11
REMARK    4  A    between atoms: S1_15  and  C9_17
REMARK    5  A    between atoms: C10_18  and  C11_19
REMARK    6  A    between atoms: C11_19  and  C12_20
REMARK    7  A    between atoms: C12_20  and  N_21
REMARK                            x       y       z     vdW  Elec       q    Type
REMARK                         _______ _______ _______ _____ _____    ______ ____
ROOT
ATOM      1  C6  D29 C1101      25.454   3.262   4.705  0.00  0.00    +0.000 A 
ATOM      2  C1  D29 C1101      25.440   4.634   4.617  0.00  0.00    +0.000 A 
ATOM      3  C5  D29 C1101      26.512   2.556   5.222  0.00  0.00    +0.000 A 
ATOM      4  C4  D29 C1101      27.626   3.235   5.641  0.00  0.00    +0.000 A 
ATOM      5  C3  D29 C1101      27.651   4.640   5.569  0.00  0.00    +0.000 A 
ATOM      6  C2  D29 C1101      26.556   5.327   5.025  0.00  0.00    +0.000 A 
ENDROOT
BRANCH   1   8
ATOM      7  F6  D29 C1101      24.491   1.928   3.111  0.00  0.00    +0.000 F 
ATOM      8  C7  D29 C1101      24.283   2.484   4.274  0.00  0.00    +0.000 C 
ATOM      9  F4  D29 C1101      24.091   1.500   5.125  0.00  0.00    +0.000 F 
ATOM     10  F5  D29 C1101      23.296   3.365   4.232  0.00  0.00    +0.000 F 
ENDBRANCH   1   8
BRANCH   6  11
ATOM     11  C8  D29 C1101      26.516   6.820   4.926  0.00  0.00    +0.000 C 
ATOM     12  F3  D29 C1101      27.720   7.351   5.031  0.00  0.00    +0.000 F 
ATOM     13  F2  D29 C1101      25.689   7.391   5.776  0.00  0.00    +0.000 F 
ATOM     14  F1  D29 C1101      26.059   7.052   3.731  0.00  0.00    +0.000 F 
ENDBRANCH   6  11
BRANCH   4  15
ATOM     15  S1  D29 C1101      28.802   2.245   6.213  0.00  0.00    +0.000 S 
ATOM     16  O   D29 C1101      29.930   3.105   5.791  0.00  0.00    +0.000 OA
BRANCH  15  17
ATOM     17  C9  D29 C1101      28.857   1.005   5.196  0.00  0.00    +0.000 C 
ATOM     18  C10 D29 C1101      29.412   1.181   4.001  0.00  0.00    +0.000 C 
BRANCH  18  19
ATOM     19  C11 D29 C1101      29.495   0.061   3.000  0.00  0.00    +0.000 C 
BRANCH  19  20
ATOM     20  C12 D29 C1101      29.476  -1.303   3.687  0.00  0.00    +0.000 C 
BRANCH  20  21
ATOM     21  N   D29 C1101      28.382  -2.141   3.193  0.00  0.00    +0.000 NA
ATOM     22  C13 D29 C1101      27.287  -2.340   3.797  0.00  0.00    +0.000 C 
ATOM     23  S2  D29 C1101      26.914  -1.677   5.313  0.00  0.00    +0.000 S 
ENDBRANCH  20  21
ENDBRANCH  19  20
ENDBRANCH  18  19
ENDBRANCH  15  17
ENDBRANCH   4  15
TORSDOF 7
ENDMDL
MODEL 4
REMARK VINA RESULT:      -7.2      1.262      3.771
REMARK  Name = ligand_pdbs\D29.pdb
REMARK  7 active torsions:
REMARK  status: ('A' for Active; 'I' for Inactive)
REMARK    1  A    between atoms: C7_2  and  C6_5
REMARK    2  A    between atoms: C4_8  and  S1_15
REMARK    3  A    between atoms: C2_10  and  C8_11
REMARK    4  A    between atoms: S1_15  and  C9_17
REMARK    5  A    between atoms: C10_18  and  C11_19
REMARK    6  A    between atoms: C11_19  and  C12_20
REMARK    7  A    between atoms: C12_20  and  N_21
REMARK                            x       y       z     vdW  Elec       q    Type
REMARK                         _______ _______ _______ _____ _____    ______ ____
ROOT
ATOM      1  C6  D29 C1101      29.041   0.939   5.661  0.00  0.00    +0.000 A 
ATOM      2  C1  D29 C1101      29.286  -0.281   5.076  0.00  0.00    +0.000 A 
ATOM      3  C5  D29 C1101      27.811   1.549   5.634  0.00  0.00    +0.000 A 
ATOM      4  C4  D29 C1101      26.781   0.942   4.966  0.00  0.00    +0.000 A 
ATOM      5  C3  D29 C1101      26.990  -0.309   4.355  0.00  0.00    +0.000 A 
ATOM      6  C2  D29 C1101      28.263  -0.896   4.395  0.00  0.00    +0.000 A 
ENDROOT
BRANCH   1   8
ATOM      7  F6  D29 C1101      31.028   2.075   5.579  0.00  0.00    +0.000 F 
ATOM      8  C7  D29 C1101      30.110   1.632   6.395  0.00  0.00    +0.000 C 
ATOM      9  F4  D29 C1101      29.601   2.690   6.987  0.00  0.00    +0.000 F 
ATOM     10  F5  D29 C1101      30.587   0.721   7.228  0.00  0.00    +0.000 F 
ENDBRANCH   1   8
BRANCH   6  11
ATOM     11  C8  D29 C1101      28.550  -2.226   3.771  0.00  0.00    +0.000 C 
ATOM     12  F3  D29 C1101      29.830  -2.539   3.849  0.00  0.00    +0.000 F 
ATOM     13  F2  D29 C1101      28.127  -2.340   2.530  0.00  0.00    +0.000 F 
ATOM     14  F1  D29 C1101      27.868  -3.072   4.487  0.00  0.00    +0.000 F 
ENDBRANCH   6  11
BRANCH   4  15
ATOM     15  S1  D29 C1101      25.388   1.808   5.012  0.00  0.00    +0.000 S 
ATOM     16  O   D29 C1101      24.833   1.253   3.758  0.00  0.00    +0.000 OA
BRANCH  15  17
ATOM     17  C9  D29 C1101      25.800   3.309   4.625  0.00  0.00    +0.000 C 
ATOM     18  C10 D29 C1101      26.504   3.515   3.516  0.00  0.00    +0.000 C 
BRANCH  18  19
ATOM     19  C11 D29 C1101      26.924   4.897   3.095  0.00  0.00    +0.000 C 
BRANCH  19  20
ATOM     20  C12 D29 C1101      26.539   5.939   4.144  0.00  0.00    +0.000 C 
BRANCH  20  21
ATOM     21  N   D29 C1101      25.140   6.349   4.011  0.00  0.00    +0.000 NA
ATOM     22  C13 D29 C1101      24.603   7.319   4.623  0.00  0.00    +0.000 C 
ATOM     23  S2  D29 C1101      25.425   8.301   5.734  0.00  0.00    +0.000 S 
ENDBRANCH  20  21
ENDBRANCH  19  20
ENDBRANCH  18  19
ENDBRANCH  15  17
ENDBRANCH   4  15
TORSDOF 7
ENDMDL
MODEL 5
REMARK VINA RESULT:      -7.1      3.328      5.794
REMARK  Name = ligand_pdbs\D29.pdb
REMARK  7 active torsions:
REMARK  status: ('A' for Active; 'I' for Inactive)
REMARK    1  A    between atoms: C7_2  and  C6_5
REMARK    2  A    between atoms: C4_8  and  S1_15
REMARK    3  A    between atoms: C2_10  and  C8_11
REMARK    4  A    between atoms: S1_15  and  C9_17
REMARK    5  A    between atoms: C10_18  and  C11_19
REMARK    6  A    between atoms: C11_19  and  C12_20
REMARK    7  A    between atoms: C12_20  and  N_21
REMARK                            x       y       z     vdW  Elec       q    Type
REMARK                         _______ _______ _______ _____ _____    ______ ____
ROOT
ATOM      1  C6  D29 C1101      28.062   3.268   5.343  0.00  0.00    +0.000 A 
ATOM      2  C1  D29 C1101      27.809   4.617   5.431  0.00  0.00    +0.000 A 
ATOM      3  C5  D29 C1101      27.305   2.413   4.580  0.00  0.00    +0.000 A 
ATOM      4  C4  D29 C1101      26.224   2.907   3.899  0.00  0.00    +0.000 A 
ATOM      5  C3  D29 C1101      25.933   4.282   3.961  0.00  0.00    +0.000 A 
ATOM      6  C2  D29 C1101      26.722   5.123   4.759  0.00  0.00    +0.000 A 
ENDROOT
BRANCH   1   8
ATOM      7  F6  D29 C1101      30.258   2.620   5.274  0.00  0.00    +0.000 F 
ATOM      8  C7  D29 C1101      29.211   2.686   6.051  0.00  0.00    +0.000 C 
ATOM      9  F4  D29 C1101      29.541   3.478   7.048  0.00  0.00    +0.000 F 
ATOM     10  F5  D29 C1101      28.797   1.486   6.427  0.00  0.00    +0.000 F 
ENDBRANCH   1   8
BRANCH   6  11
ATOM     11  C8  D29 C1101      26.470   6.595   4.863  0.00  0.00    +0.000 C 
ATOM     12  F3  D29 C1101      27.577   7.265   5.126  0.00  0.00    +0.000 F 
ATOM     13  F2  D29 C1101      25.526   6.918   5.721  0.00  0.00    +0.000 F 
ATOM     14  F1  D29 C1101      26.046   6.934   3.681  0.00  0.00    +0.000 F 
ENDBRANCH   6  11
BRANCH   4  15
ATOM     15  S1  D29 C1101      25.418   1.755   3.054  0.00  0.00    +0.000 S 
ATOM     16  O   D29 C1101      24.232   1.733   3.938  0.00  0.00    +0.000 OA
BRANCH  15  17
ATOM     17  C9  D29 C1101      26.171   0.375   3.377  0.00  0.00    +0.000 C 
ATOM     18  C10 D29 C1101      26.039  -0.157   4.588  0.00  0.00    +0.000 C 
BRANCH  18  19
ATOM     19  C11 D29 C1101      26.718  -1.447   4.959  0.00  0.00    +0.000 C 
BRANCH  19  20
ATOM     20  C12 D29 C1101      27.374  -2.100   3.743  0.00  0.00    +0.000 C 
BRANCH  20  21
ATOM     21  N   D29 C1101      28.780  -2.423   3.995  0.00  0.00    +0.000 NA
ATOM     22  C13 D29 C1101      29.757  -1.651   3.766  0.00  0.00    +0.000 C 
ATOM     23  S2  D29 C1101      29.594  -0.102   3.094  0.00  0.00    +0.000 S 
ENDBRANCH  20  21
ENDBRANCH  19  20
ENDBRANCH  18  19
ENDBRANCH  15  17
ENDBRANCH   4  15
TORSDOF 7
ENDMDL
MODEL 6
REMARK VINA RESULT:      -7.1      4.187      7.209
REMARK  Name = ligand_pdbs\D29.pdb
REMARK  7 active torsions:
REMARK  status: ('A' for Active; 'I' for Inactive)
REMARK    1  A    between atoms: C7_2  and  C6_5
REMARK    2  A    between atoms: C4_8  and  S1_15
REMARK    3  A    between atoms: C2_10  and  C8_11
REMARK    4  A    between atoms: S1_15  and  C9_17
REMARK    5  A    between atoms: C10_18  and  C11_19
REMARK    6  A    between atoms: C11_19  and  C12_20
REMARK    7  A    between atoms: C12_20  and  N_21
REMARK                            x       y       z     vdW  Elec       q    Type
REMARK                         _______ _______ _______ _____ _____    ______ ____
ROOT
ATOM      1  C6  D29 C1101      26.508   5.295   5.050  0.00  0.00    +0.000 A 
ATOM      2  C1  D29 C1101      25.317   4.731   4.655  0.00  0.00    +0.000 A 
ATOM      3  C5  D29 C1101      27.576   4.555   5.492  0.00  0.00    +0.000 A 
ATOM      4  C4  D29 C1101      27.453   3.193   5.582  0.00  0.00    +0.000 A 
ATOM      5  C3  D29 C1101      26.252   2.577   5.186  0.00  0.00    +0.000 A 
ATOM      6  C2  D29 C1101      25.178   3.366   4.749  0.00  0.00    +0.000 A 
ENDROOT
BRANCH   1   8
ATOM      7  F6  D29 C1101      26.053   7.361   5.928  0.00  0.00    +0.000 F 
ATOM      8  C7  D29 C1101      26.695   6.751   4.970  0.00  0.00    +0.000 C 
ATOM      9  F4  D29 C1101      27.969   7.024   5.146  0.00  0.00    +0.000 F 
ATOM     10  F5  D29 C1101      26.230   7.080   3.775  0.00  0.00    +0.000 F 
ENDBRANCH   1   8
BRANCH   6  11
ATOM     11  C8  D29 C1101      23.876   2.773   4.308  0.00  0.00    +0.000 C 
ATOM     12  F3  D29 C1101      24.008   2.072   3.196  0.00  0.00    +0.000 F 
ATOM     13  F2  D29 C1101      22.903   3.649   4.181  0.00  0.00    +0.000 F 
ATOM     14  F1  D29 C1101      23.544   1.967   5.274  0.00  0.00    +0.000 F 
ENDBRANCH   6  11
BRANCH   4  15
ATOM     15  S1  D29 C1101      28.809   2.462   6.144  0.00  0.00    +0.000 S 
ATOM     16  O   D29 C1101      29.753   3.429   5.541  0.00  0.00    +0.000 OA
BRANCH  15  17
ATOM     17  C9  D29 C1101      28.987   1.138   5.256  0.00  0.00    +0.000 C 
ATOM     18  C10 D29 C1101      29.381   1.264   3.992  0.00  0.00    +0.000 C 
BRANCH  18  19
ATOM     19  C11 D29 C1101      29.566   0.064   3.103  0.00  0.00    +0.000 C 
BRANCH  19  20
ATOM     20  C12 D29 C1101      29.526  -1.236   3.906  0.00  0.00    +0.000 C 
BRANCH  20  21
ATOM     21  N   D29 C1101      28.522  -2.163   3.383  0.00  0.00    +0.000 NA
ATOM     22  C13 D29 C1101      27.372  -2.348   3.879  0.00  0.00    +0.000 C 
ATOM     23  S2  D29 C1101      26.809  -1.557   5.269  0.00  0.00    +0.000 S 
ENDBRANCH  20  21
ENDBRANCH  19  20
ENDBRANCH  18  19
ENDBRANCH  15  17
ENDBRANCH   4  15
TORSDOF 7
ENDMDL
MODEL 7
REMARK VINA RESULT:      -7.0      3.269      5.980
REMARK  Name = ligand_pdbs\D29.pdb
REMARK  7 active torsions:
REMARK  status: ('A' for Active; 'I' for Inactive)
REMARK    1  A    between atoms: C7_2  and  C6_5
REMARK    2  A    between atoms: C4_8  and  S1_15
REMARK    3  A    between atoms: C2_10  and  C8_11
REMARK    4  A    between atoms: S1_15  and  C9_17
REMARK    5  A    between atoms: C10_18  and  C11_19
REMARK    6  A    between atoms: C11_19  and  C12_20
REMARK    7  A    between atoms: C12_20  and  N_21
REMARK                            x       y       z     vdW  Elec       q    Type
REMARK                         _______ _______ _______ _____ _____    ______ ____
ROOT
ATOM      1  C6  D29 C1101      26.576   4.939   4.675  0.00  0.00    +0.000 A 
ATOM      2  C1  D29 C1101      27.643   4.617   5.480  0.00  0.00    +0.000 A 
ATOM      3  C5  D29 C1101      25.987   4.041   3.819  0.00  0.00    +0.000 A 
ATOM      4  C4  D29 C1101      26.499   2.774   3.726  0.00  0.00    +0.000 A 
ATOM      5  C3  D29 C1101      27.590   2.404   4.534  0.00  0.00    +0.000 A 
ATOM      6  C2  D29 C1101      28.173   3.351   5.389  0.00  0.00    +0.000 A 
ENDROOT
BRANCH   1   8
ATOM      7  F6  D29 C1101      25.760   6.754   3.541  0.00  0.00    +0.000 F 
ATOM      8  C7  D29 C1101      25.984   6.283   4.738  0.00  0.00    +0.000 C 
ATOM      9  F4  D29 C1101      24.812   6.203   5.329  0.00  0.00    +0.000 F 
ATOM     10  F5  D29 C1101      26.875   7.007   5.396  0.00  0.00    +0.000 F 
ENDBRANCH   1   8
BRANCH   6  11
ATOM     11  C8  D29 C1101      29.330   3.021   6.279  0.00  0.00    +0.000 C 
ATOM     12  F3  D29 C1101      29.400   3.836   7.316  0.00  0.00    +0.000 F 
ATOM     13  F2  D29 C1101      30.489   2.974   5.656  0.00  0.00    +0.000 F 
ATOM     14  F1  D29 C1101      29.076   1.820   6.707  0.00  0.00    +0.000 F 
ENDBRANCH   6  11
BRANCH   4  15
ATOM     15  S1  D29 C1101      25.695   1.835   2.648  0.00  0.00    +0.000 S 
ATOM     16  O   D29 C1101      24.460   1.715   3.455  0.00  0.00    +0.000 OA
BRANCH  15  17
ATOM     17  C9  D29 C1101      26.370   0.383   2.750  0.00  0.00    +0.000 C 
ATOM     18  C10 D29 C1101      25.976  -0.439   3.718  0.00  0.00    +0.000 C 
BRANCH  18  19
ATOM     19  C11 D29 C1101      26.568  -1.813   3.872  0.00  0.00    +0.000 C 
BRANCH  19  20
ATOM     20  C12 D29 C1101      27.362  -1.935   5.173  0.00  0.00    +0.000 C 
BRANCH  20  21
ATOM     21  N   D29 C1101      28.348  -0.862   5.306  0.00  0.00    +0.000 NA
ATOM     22  C13 D29 C1101      29.449  -0.803   4.683  0.00  0.00    +0.000 C 
ATOM     23  S2  D29 C1101      29.978  -1.991   3.595  0.00  0.00    +0.000 S 
ENDBRANCH  20  21
ENDBRANCH  19  20
ENDBRANCH  18  19
ENDBRANCH  15  17
ENDBRANCH   4  15
TORSDOF 7
ENDMDL
MODEL 8
REMARK VINA RESULT:      -6.7      2.864      3.940
REMARK  Name = ligand_pdbs\D29.pdb
REMARK  7 active torsions:
REMARK  status: ('A' for Active; 'I' for Inactive)
REMARK    1  A    between atoms: C7_2  and  C6_5
REMARK    2  A    between atoms: C4_8  and  S1_15
REMARK    3  A    between atoms: C2_10  and  C8_11
REMARK    4  A    between atoms: S1_15  and  C9_17
REMARK    5  A    between atoms: C10_18  and  C11_19
REMARK    6  A    between atoms: C11_19  and  C12_20
REMARK    7  A    between atoms: C12_20  and  N_21
REMARK                            x       y       z     vdW  Elec       q    Type
REMARK                         _______ _______ _______ _____ _____    ______ ____
ROOT
ATOM      1  C6  D29 C1101      28.375  -0.856   3.567  0.00  0.00    +0.000 A 
ATOM      2  C1  D29 C1101      27.241  -0.446   2.907  0.00  0.00    +0.000 A 
ATOM      3  C5  D29 C1101      29.134  -0.017   4.344  0.00  0.00    +0.000 A 
ATOM      4  C4  D29 C1101      28.777   1.302   4.446  0.00  0.00    +0.000 A 
ATOM      5  C3  D29 C1101      27.622   1.762   3.787  0.00  0.00    +0.000 A 
ATOM      6  C2  D29 C1101      26.877   0.878   2.993  0.00  0.00    +0.000 A 
ENDROOT
BRANCH   1   8
ATOM      7  F6  D29 C1101      30.082  -2.376   3.718  0.00  0.00    +0.000 F 
ATOM      8  C7  D29 C1101      28.801  -2.261   3.495  0.00  0.00    +0.000 C 
ATOM      9  F4  D29 C1101      28.199  -2.937   4.449  0.00  0.00    +0.000 F 
ATOM     10  F5  D29 C1101      28.475  -2.645   2.271  0.00  0.00    +0.000 F 
ENDBRANCH   1   8
BRANCH   6  11
ATOM     11  C8  D29 C1101      25.636   1.301   2.272  0.00  0.00    +0.000 C 
ATOM     12  F3  D29 C1101      24.544   0.912   2.904  0.00  0.00    +0.000 F 
ATOM     13  F2  D29 C1101      25.593   0.925   1.012  0.00  0.00    +0.000 F 
ATOM     14  F1  D29 C1101      25.685   2.601   2.282  0.00  0.00    +0.000 F 
ENDBRANCH   6  11
BRANCH   4  15
ATOM     15  S1  D29 C1101      29.796   2.171   5.393  0.00  0.00    +0.000 S 
ATOM     16  O   D29 C1101      30.138   1.052   6.300  0.00  0.00    +0.000 OA
BRANCH  15  17
ATOM     17  C9  D29 C1101      28.857   3.120   6.282  0.00  0.00    +0.000 C 
ATOM     18  C10 D29 C1101      27.547   2.891   6.297  0.00  0.00    +0.000 C 
BRANCH  18  19
ATOM     19  C11 D29 C1101      26.609   3.744   7.107  0.00  0.00    +0.000 C 
BRANCH  19  20
ATOM     20  C12 D29 C1101      25.460   4.276   6.251  0.00  0.00    +0.000 C 
BRANCH  20  21
ATOM     21  N   D29 C1101      25.870   4.472   4.859  0.00  0.00    +0.000 NA
ATOM     22  C13 D29 C1101      25.839   5.576   4.239  0.00  0.00    +0.000 C 
ATOM     23  S2  D29 C1101      25.286   7.024   4.924  0.00  0.00    +0.000 S 
ENDBRANCH  20  21
ENDBRANCH  19  20
ENDBRANCH  18  19
ENDBRANCH  15  17
ENDBRANCH   4  15
TORSDOF 7
ENDMDL
MODEL 9
REMARK VINA RESULT:      -6.7      2.034      3.105
REMARK  Name = ligand_pdbs\D29.pdb
REMARK  7 active torsions:
REMARK  status: ('A' for Active; 'I' for Inactive)
REMARK    1  A    between atoms: C7_2  and  C6_5
REMARK    2  A    between atoms: C4_8  and  S1_15
REMARK    3  A    between atoms: C2_10  and  C8_11
REMARK    4  A    between atoms: S1_15  and  C9_17
REMARK    5  A    between atoms: C10_18  and  C11_19
REMARK    6  A    between atoms: C11_19  and  C12_20
REMARK    7  A    between atoms: C12_20  and  N_21
REMARK                            x       y       z     vdW  Elec       q    Type
REMARK                         _______ _______ _______ _____ _____    ______ ____
ROOT
ATOM      1  C6  D29 C1101      27.571   0.957   3.623  0.00  0.00    +0.000 A 
ATOM      2  C1  D29 C1101      28.331   0.372   4.608  0.00  0.00    +0.000 A 
ATOM      3  C5  D29 C1101      27.529   2.314   3.417  0.00  0.00    +0.000 A 
ATOM      4  C4  D29 C1101      28.244   3.137   4.246  0.00  0.00    +0.000 A 
ATOM      5  C3  D29 C1101      29.036   2.578   5.266  0.00  0.00    +0.000 A 
ATOM      6  C2  D29 C1101      29.047   1.188   5.453  0.00  0.00    +0.000 A 
ENDROOT
BRANCH   1   8
ATOM      7  F6  D29 C1101      25.972  -0.661   3.357  0.00  0.00    +0.000 F 
ATOM      8  C7  D29 C1101      26.788   0.120   2.703  0.00  0.00    +0.000 C 
ATOM      9  F4  D29 C1101      26.035   0.899   1.957  0.00  0.00    +0.000 F 
ATOM     10  F5  D29 C1101      27.694  -0.567   2.026  0.00  0.00    +0.000 F 
ENDBRANCH   1   8
BRANCH   6  11
ATOM     11  C8  D29 C1101      29.872   0.530   6.514  0.00  0.00    +0.000 C 
ATOM     12  F3  D29 C1101      29.154  -0.295   7.254  0.00  0.00    +0.000 F 
ATOM     13  F2  D29 C1101      30.533   1.372   7.279  0.00  0.00    +0.000 F 
ATOM     14  F1  D29 C1101      30.754  -0.162   5.854  0.00  0.00    +0.000 F 
ENDBRANCH   6  11
BRANCH   4  15
ATOM     15  S1  D29 C1101      28.070   4.726   3.878  0.00  0.00    +0.000 S 
ATOM     16  O   D29 C1101      28.260   5.215   5.261  0.00  0.00    +0.000 OA
BRANCH  15  17
ATOM     17  C9  D29 C1101      26.504   4.937   3.601  0.00  0.00    +0.000 C 
ATOM     18  C10 D29 C1101      25.862   5.900   4.257  0.00  0.00    +0.000 C 
BRANCH  18  19
ATOM     19  C11 D29 C1101      24.394   6.152   4.046  0.00  0.00    +0.000 C 
BRANCH  19  20
ATOM     20  C12 D29 C1101      23.547   5.014   4.615  0.00  0.00    +0.000 C 
BRANCH  20  21
ATOM     21  N   D29 C1101      24.235   4.323   5.707  0.00  0.00    +0.000 NA
ATOM     22  C13 D29 C1101      24.519   3.089   5.724  0.00  0.00    +0.000 C 
ATOM     23  S2  D29 C1101      24.122   2.015   4.474  0.00  0.00    +0.000 S 
ENDBRANCH  20  21
ENDBRANCH  19  20
ENDBRANCH  18  19
ENDBRANCH  15  17
ENDBRANCH   4  15
TORSDOF 7
ENDMDL
