MODEL 1
REMARK VINA RESULT:     -10.6      0.000      0.000
REMARK  Name = ligand_pdbs\DHT_A_931 .pdb
REMARK  0 active torsions:
REMARK  status: ('A' for Active; 'I' for Inactive)
REMARK                            x       y       z     vdW  Elec       q    Type
REMARK                         _______ _______ _______ _____ _____    ______ ____
ROOT
ATOM      1  C1  DHT A 931      27.211   5.289   4.503  0.00  0.00    +0.000 C 
ATOM      2  C2  DHT A 931      26.520   6.568   5.014  0.00  0.00    +0.000 C 
ATOM      3  C3  DHT A 931      25.042   6.502   4.520  0.00  0.00    +0.000 C 
ATOM      4  O3  DHT A 931      24.573   7.475   3.949  0.00  0.00    +0.000 OA
ATOM      5  C4  DHT A 931      24.274   5.240   4.762  0.00  0.00    +0.000 C 
ATOM      6  C5  DHT A 931      25.012   3.999   4.192  0.00  0.00    +0.000 C 
ATOM      7  C6  DHT A 931      24.233   2.667   4.442  0.00  0.00    +0.000 C 
ATOM      8  C7  DHT A 931      25.009   1.492   3.821  0.00  0.00    +0.000 C 
ATOM      9  C8  DHT A 931      26.461   1.357   4.405  0.00  0.00    +0.000 C 
ATOM     10  C9  DHT A 931      27.233   2.705   4.183  0.00  0.00    +0.000 C 
ATOM     11  C10 DHT A 931      26.489   3.944   4.819  0.00  0.00    +0.000 C 
ATOM     12  C11 DHT A 931      28.689   2.538   4.740  0.00  0.00    +0.000 C 
ATOM     13  C12 DHT A 931      29.489   1.358   4.195  0.00  0.00    +0.000 C 
ATOM     14  C13 DHT A 931      28.710   0.021   4.276  0.00  0.00    +0.000 C 
ATOM     15  C14 DHT A 931      27.256   0.217   3.727  0.00  0.00    +0.000 C 
ATOM     16  C15 DHT A 931      26.680  -1.214   3.820  0.00  0.00    +0.000 C 
ATOM     17  C16 DHT A 931      27.879  -2.074   3.318  0.00  0.00    +0.000 C 
ATOM     18  C17 DHT A 931      29.101  -1.115   3.347  0.00  0.00    +0.000 C 
ATOM     19  O17 DHT A 931      30.265  -1.828   3.780  0.00  0.00    +0.000 OA
ATOM     20  C18 DHT A 931      28.697  -0.466   5.782  0.00  0.00    +0.000 C 
ATOM     21  C19 DHT A 931      26.412   3.746   6.390  0.00  0.00    +0.000 C 
ENDROOT
TORSDOF 0
ENDMDL
MODEL 2
REMARK VINA RESULT:      -9.9      1.547      2.885
REMARK  Name = ligand_pdbs\DHT_A_931 .pdb
REMARK  0 active torsions:
REMARK  status: ('A' for Active; 'I' for Inactive)
REMARK                            x       y       z     vdW  Elec       q    Type
REMARK                         _______ _______ _______ _____ _____    ______ ____
ROOT
ATOM      1  C1  DHT A 931      24.745   5.172   4.140  0.00  0.00    +0.000 C 
ATOM      2  C2  DHT A 931      24.704   6.694   3.909  0.00  0.00    +0.000 C 
ATOM      3  C3  DHT A 931      25.545   7.340   5.053  0.00  0.00    +0.000 C 
ATOM      4  O3  DHT A 931      25.056   8.262   5.689  0.00  0.00    +0.000 OA
ATOM      5  C4  DHT A 931      26.910   6.788   5.323  0.00  0.00    +0.000 C 
ATOM      6  C5  DHT A 931      26.871   5.257   5.579  0.00  0.00    +0.000 C 
ATOM      7  C6  DHT A 931      28.288   4.655   5.852  0.00  0.00    +0.000 C 
ATOM      8  C7  DHT A 931      28.162   3.147   6.130  0.00  0.00    +0.000 C 
ATOM      9  C8  DHT A 931      27.495   2.372   4.938  0.00  0.00    +0.000 C 
ATOM     10  C9  DHT A 931      26.086   2.996   4.642  0.00  0.00    +0.000 C 
ATOM     11  C10 DHT A 931      26.159   4.543   4.330  0.00  0.00    +0.000 C 
ATOM     12  C11 DHT A 931      25.422   2.187   3.475  0.00  0.00    +0.000 C 
ATOM     13  C12 DHT A 931      25.316   0.678   3.674  0.00  0.00    +0.000 C 
ATOM     14  C13 DHT A 931      26.662   0.036   4.096  0.00  0.00    +0.000 C 
ATOM     15  C14 DHT A 931      27.310   0.869   5.253  0.00  0.00    +0.000 C 
ATOM     16  C15 DHT A 931      28.577   0.043   5.575  0.00  0.00    +0.000 C 
ATOM     17  C16 DHT A 931      28.029  -1.416   5.518  0.00  0.00    +0.000 C 
ATOM     18  C17 DHT A 931      26.645  -1.298   4.823  0.00  0.00    +0.000 C 
ATOM     19  O17 DHT A 931      26.444  -2.417   3.952  0.00  0.00    +0.000 OA
ATOM     20  C18 DHT A 931      27.610  -0.029   2.830  0.00  0.00    +0.000 C 
ATOM     21  C19 DHT A 931      27.012   4.761   3.012  0.00  0.00    +0.000 C 
ENDROOT
TORSDOF 0
ENDMDL
MODEL 3
REMARK VINA RESULT:      -8.8      1.176      6.694
REMARK  Name = ligand_pdbs\DHT_A_931 .pdb
REMARK  0 active torsions:
REMARK  status: ('A' for Active; 'I' for Inactive)
REMARK                            x       y       z     vdW  Elec       q    Type
REMARK                         _______ _______ _______ _____ _____    ______ ____
ROOT
ATOM      1  C1  DHT A 931      27.795  -0.057   2.913  0.00  0.00    +0.000 C 
ATOM      2  C2  DHT A 931      28.158  -1.542   3.105  0.00  0.00    +0.000 C 
ATOM      3  C3  DHT A 931      29.508  -1.572   3.885  0.00  0.00    +0.000 C 
ATOM      4  O3  DHT A 931      30.417  -2.266   3.453  0.00  0.00    +0.000 OA
ATOM      5  C4  DHT A 931      29.627  -0.738   5.122  0.00  0.00    +0.000 C 
ATOM      6  C5  DHT A 931      29.280   0.750   4.847  0.00  0.00    +0.000 C 
ATOM      7  C6  DHT A 931      29.386   1.640   6.128  0.00  0.00    +0.000 C 
ATOM      8  C7  DHT A 931      29.063   3.101   5.768  0.00  0.00    +0.000 C 
ATOM      9  C8  DHT A 931      27.629   3.262   5.147  0.00  0.00    +0.000 C 
ATOM     10  C9  DHT A 931      27.511   2.344   3.880  0.00  0.00    +0.000 C 
ATOM     11  C10 DHT A 931      27.815   0.827   4.197  0.00  0.00    +0.000 C 
ATOM     12  C11 DHT A 931      26.087   2.546   3.255  0.00  0.00    +0.000 C 
ATOM     13  C12 DHT A 931      25.692   3.982   2.924  0.00  0.00    +0.000 C 
ATOM     14  C13 DHT A 931      25.916   4.952   4.112  0.00  0.00    +0.000 C 
ATOM     15  C14 DHT A 931      27.339   4.721   4.727  0.00  0.00    +0.000 C 
ATOM     16  C15 DHT A 931      27.396   5.809   5.824  0.00  0.00    +0.000 C 
ATOM     17  C16 DHT A 931      26.758   7.031   5.095  0.00  0.00    +0.000 C 
ATOM     18  C17 DHT A 931      26.080   6.435   3.830  0.00  0.00    +0.000 C 
ATOM     19  O17 DHT A 931      24.839   7.107   3.584  0.00  0.00    +0.000 OA
ATOM     20  C18 DHT A 931      24.778   4.708   5.185  0.00  0.00    +0.000 C 
ATOM     21  C19 DHT A 931      26.730   0.289   5.221  0.00  0.00    +0.000 C 
ENDROOT
TORSDOF 0
ENDMDL
MODEL 4
REMARK VINA RESULT:      -8.3      1.385      6.336
REMARK  Name = ligand_pdbs\DHT_A_931 .pdb
REMARK  0 active torsions:
REMARK  status: ('A' for Active; 'I' for Inactive)
REMARK                            x       y       z     vdW  Elec       q    Type
REMARK                         _______ _______ _______ _____ _____    ______ ____
ROOT
ATOM      1  C1  DHT A 931      28.316   0.361   5.145  0.00  0.00    +0.000 C 
ATOM      2  C2  DHT A 931      28.730  -1.058   4.711  0.00  0.00    +0.000 C 
ATOM      3  C3  DHT A 931      27.413  -1.882   4.575  0.00  0.00    +0.000 C 
ATOM      4  O3  DHT A 931      27.344  -2.970   5.127  0.00  0.00    +0.000 OA
ATOM      5  C4  DHT A 931      26.290  -1.291   3.781  0.00  0.00    +0.000 C 
ATOM      6  C5  DHT A 931      25.905   0.123   4.293  0.00  0.00    +0.000 C 
ATOM      7  C6  DHT A 931      24.740   0.766   3.472  0.00  0.00    +0.000 C 
ATOM      8  C7  DHT A 931      24.395   2.144   4.061  0.00  0.00    +0.000 C 
ATOM      9  C8  DHT A 931      25.625   3.121   4.061  0.00  0.00    +0.000 C 
ATOM     10  C9  DHT A 931      26.805   2.463   4.858  0.00  0.00    +0.000 C 
ATOM     11  C10 DHT A 931      27.215   1.050   4.283  0.00  0.00    +0.000 C 
ATOM     12  C11 DHT A 931      28.009   3.466   4.877  0.00  0.00    +0.000 C 
ATOM     13  C12 DHT A 931      27.712   4.868   5.404  0.00  0.00    +0.000 C 
ATOM     14  C13 DHT A 931      26.470   5.507   4.734  0.00  0.00    +0.000 C 
ATOM     15  C14 DHT A 931      25.287   4.481   4.715  0.00  0.00    +0.000 C 
ATOM     16  C15 DHT A 931      24.146   5.315   4.089  0.00  0.00    +0.000 C 
ATOM     17  C16 DHT A 931      24.327   6.689   4.803  0.00  0.00    +0.000 C 
ATOM     18  C17 DHT A 931      25.733   6.619   5.460  0.00  0.00    +0.000 C 
ATOM     19  O17 DHT A 931      26.380   7.892   5.355  0.00  0.00    +0.000 OA
ATOM     20  C18 DHT A 931      26.864   5.960   3.269  0.00  0.00    +0.000 C 
ATOM     21  C19 DHT A 931      27.746   1.234   2.801  0.00  0.00    +0.000 C 
ENDROOT
TORSDOF 0
ENDMDL
