MODEL 1
REMARK VINA RESULT:     -10.2      0.000      0.000
REMARK  Name = ligand_pdbs\DHT.pdb
REMARK  0 active torsions:
REMARK  status: ('A' for Active; 'I' for Inactive)
REMARK                            x       y       z     vdW  Elec       q    Type
REMARK                         _______ _______ _______ _____ _____    ______ ____
ROOT
ATOM      1  C1  DHT A 201      27.330   5.220   4.874  0.00  0.00    +0.000 C 
ATOM      2  C2  DHT A 201      26.495   6.516   5.079  0.00  0.00    +0.000 C 
ATOM      3  C3  DHT A 201      25.100   6.359   4.514  0.00  0.00    +0.000 C 
ATOM      4  O3  DHT A 201      24.493   7.356   4.114  0.00  0.00    +0.000 OA
ATOM      5  C4  DHT A 201      24.472   5.057   4.437  0.00  0.00    +0.000 C 
ATOM      6  C5  DHT A 201      25.075   3.968   4.838  0.00  0.00    +0.000 C 
ATOM      7  C6  DHT A 201      24.304   2.643   4.745  0.00  0.00    +0.000 C 
ATOM      8  C7  DHT A 201      25.102   1.549   3.988  0.00  0.00    +0.000 C 
ATOM      9  C8  DHT A 201      26.508   1.347   4.596  0.00  0.00    +0.000 C 
ATOM     10  C9  DHT A 201      27.275   2.690   4.492  0.00  0.00    +0.000 C 
ATOM     11  C10 DHT A 201      26.604   3.895   5.280  0.00  0.00    +0.000 C 
ATOM     12  C11 DHT A 201      28.773   2.515   4.892  0.00  0.00    +0.000 C 
ATOM     13  C12 DHT A 201      29.473   1.348   4.136  0.00  0.00    +0.000 C 
ATOM     14  C13 DHT A 201      28.708   0.001   4.306  0.00  0.00    +0.000 C 
ATOM     15  C14 DHT A 201      27.245   0.271   3.798  0.00  0.00    +0.000 C 
ATOM     16  C15 DHT A 201      26.611  -1.161   3.771  0.00  0.00    +0.000 C 
ATOM     17  C16 DHT A 201      27.811  -2.053   3.278  0.00  0.00    +0.000 C 
ATOM     18  C17 DHT A 201      29.078  -1.148   3.306  0.00  0.00    +0.000 C 
ATOM     19  O17 DHT A 201      30.344  -1.918   3.709  0.00  0.00    +0.000 OA
ATOM     20  C18 DHT A 201      28.761  -0.496   5.797  0.00  0.00    +0.000 C 
ATOM     21  C19 DHT A 201      26.595   3.730   6.858  0.00  0.00    +0.000 C 
ENDROOT
TORSDOF 0
ENDMDL
MODEL 2
REMARK VINA RESULT:      -9.1      1.146      6.621
REMARK  Name = ligand_pdbs\DHT.pdb
REMARK  0 active torsions:
REMARK  status: ('A' for Active; 'I' for Inactive)
REMARK                            x       y       z     vdW  Elec       q    Type
REMARK                         _______ _______ _______ _____ _____    ______ ____
ROOT
ATOM      1  C1  DHT A 201      27.469  -0.428   2.916  0.00  0.00    +0.000 C 
ATOM      2  C2  DHT A 201      28.098  -1.847   3.009  0.00  0.00    +0.000 C 
ATOM      3  C3  DHT A 201      29.395  -1.817   3.787  0.00  0.00    +0.000 C 
ATOM      4  O3  DHT A 201      30.266  -2.657   3.545  0.00  0.00    +0.000 OA
ATOM      5  C4  DHT A 201      29.626  -0.818   4.809  0.00  0.00    +0.000 C 
ATOM      6  C5  DHT A 201      28.741   0.100   5.098  0.00  0.00    +0.000 C 
ATOM      7  C6  DHT A 201      29.073   1.091   6.224  0.00  0.00    +0.000 C 
ATOM      8  C7  DHT A 201      28.911   2.568   5.776  0.00  0.00    +0.000 C 
ATOM      9  C8  DHT A 201      27.510   2.831   5.181  0.00  0.00    +0.000 C 
ATOM     10  C9  DHT A 201      27.328   1.910   3.947  0.00  0.00    +0.000 C 
ATOM     11  C10 DHT A 201      27.405   0.356   4.269  0.00  0.00    +0.000 C 
ATOM     12  C11 DHT A 201      26.025   2.265   3.167  0.00  0.00    +0.000 C 
ATOM     13  C12 DHT A 201      25.913   3.780   2.824  0.00  0.00    +0.000 C 
ATOM     14  C13 DHT A 201      26.044   4.676   4.092  0.00  0.00    +0.000 C 
ATOM     15  C14 DHT A 201      27.421   4.295   4.747  0.00  0.00    +0.000 C 
ATOM     16  C15 DHT A 201      27.596   5.384   5.860  0.00  0.00    +0.000 C 
ATOM     17  C16 DHT A 201      27.013   6.671   5.166  0.00  0.00    +0.000 C 
ATOM     18  C17 DHT A 201      26.329   6.198   3.850  0.00  0.00    +0.000 C 
ATOM     19  O17 DHT A 201      25.068   7.006   3.517  0.00  0.00    +0.000 OA
ATOM     20  C18 DHT A 201      24.822   4.468   5.061  0.00  0.00    +0.000 C 
ATOM     21  C19 DHT A 201      26.220  -0.192   5.170  0.00  0.00    +0.000 C 
ENDROOT
TORSDOF 0
ENDMDL
MODEL 3
REMARK VINA RESULT:      -9.0      1.578      2.977
REMARK  Name = ligand_pdbs\DHT.pdb
REMARK  0 active torsions:
REMARK  status: ('A' for Active; 'I' for Inactive)
REMARK                            x       y       z     vdW  Elec       q    Type
REMARK                         _______ _______ _______ _____ _____    ______ ____
ROOT
ATOM      1  C1  DHT A 201      24.842   5.300   3.870  0.00  0.00    +0.000 C 
ATOM      2  C2  DHT A 201      24.730   6.847   3.971  0.00  0.00    +0.000 C 
ATOM      3  C3  DHT A 201      25.513   7.373   5.153  0.00  0.00    +0.000 C 
ATOM      4  O3  DHT A 201      25.157   8.421   5.698  0.00  0.00    +0.000 OA
ATOM      5  C4  DHT A 201      26.672   6.663   5.652  0.00  0.00    +0.000 C 
ATOM      6  C5  DHT A 201      27.086   5.544   5.118  0.00  0.00    +0.000 C 
ATOM      7  C6  DHT A 201      28.348   4.891   5.702  0.00  0.00    +0.000 C 
ATOM      8  C7  DHT A 201      28.121   3.403   6.079  0.00  0.00    +0.000 C 
ATOM      9  C8  DHT A 201      27.561   2.594   4.889  0.00  0.00    +0.000 C 
ATOM     10  C9  DHT A 201      26.204   3.220   4.475  0.00  0.00    +0.000 C 
ATOM     11  C10 DHT A 201      26.294   4.732   3.999  0.00  0.00    +0.000 C 
ATOM     12  C11 DHT A 201      25.475   2.334   3.418  0.00  0.00    +0.000 C 
ATOM     13  C12 DHT A 201      25.357   0.842   3.849  0.00  0.00    +0.000 C 
ATOM     14  C13 DHT A 201      26.744   0.227   4.204  0.00  0.00    +0.000 C 
ATOM     15  C14 DHT A 201      27.346   1.145   5.329  0.00  0.00    +0.000 C 
ATOM     16  C15 DHT A 201      28.608   0.345   5.800  0.00  0.00    +0.000 C 
ATOM     17  C16 DHT A 201      28.107  -1.146   5.732  0.00  0.00    +0.000 C 
ATOM     18  C17 DHT A 201      26.731  -1.121   5.005  0.00  0.00    +0.000 C 
ATOM     19  O17 DHT A 201      26.511  -2.352   4.116  0.00  0.00    +0.000 OA
ATOM     20  C18 DHT A 201      27.663   0.129   2.931  0.00  0.00    +0.000 C 
ATOM     21  C19 DHT A 201      27.097   4.954   2.648  0.00  0.00    +0.000 C 
ENDROOT
TORSDOF 0
ENDMDL
