MODEL 1
REMARK VINA RESULT:     -10.6      0.000      0.000
REMARK  Name = ligand_pdbs\DHT_A_931 .pdb
REMARK  0 active torsions:
REMARK  status: ('A' for Active; 'I' for Inactive)
REMARK                            x       y       z     vdW  Elec       q    Type
REMARK                         _______ _______ _______ _____ _____    ______ ____
ROOT
ATOM      1  C1  DHT A 931      27.209   5.288   4.503  0.00  0.00    +0.000 C 
ATOM      2  C2  DHT A 931      26.517   6.566   5.014  0.00  0.00    +0.000 C 
ATOM      3  C3  DHT A 931      25.039   6.499   4.520  0.00  0.00    +0.000 C 
ATOM      4  O3  DHT A 931      24.569   7.471   3.948  0.00  0.00    +0.000 OA
ATOM      5  C4  DHT A 931      24.271   5.237   4.761  0.00  0.00    +0.000 C 
ATOM      6  C5  DHT A 931      25.011   3.996   4.191  0.00  0.00    +0.000 C 
ATOM      7  C6  DHT A 931      24.233   2.663   4.441  0.00  0.00    +0.000 C 
ATOM      8  C7  DHT A 931      25.010   1.489   3.820  0.00  0.00    +0.000 C 
ATOM      9  C8  DHT A 931      26.462   1.355   4.404  0.00  0.00    +0.000 C 
ATOM     10  C9  DHT A 931      27.233   2.704   4.182  0.00  0.00    +0.000 C 
ATOM     11  C10 DHT A 931      26.488   3.942   4.818  0.00  0.00    +0.000 C 
ATOM     12  C11 DHT A 931      28.689   2.538   4.739  0.00  0.00    +0.000 C 
ATOM     13  C12 DHT A 931      29.490   1.358   4.195  0.00  0.00    +0.000 C 
ATOM     14  C13 DHT A 931      28.712   0.021   4.275  0.00  0.00    +0.000 C 
ATOM     15  C14 DHT A 931      27.258   0.216   3.726  0.00  0.00    +0.000 C 
ATOM     16  C15 DHT A 931      26.683  -1.216   3.819  0.00  0.00    +0.000 C 
ATOM     17  C16 DHT A 931      27.883  -2.075   3.317  0.00  0.00    +0.000 C 
ATOM     18  C17 DHT A 931      29.104  -1.115   3.346  0.00  0.00    +0.000 C 
ATOM     19  O17 DHT A 931      30.269  -1.827   3.779  0.00  0.00    +0.000 OA
ATOM     20  C18 DHT A 931      28.699  -0.466   5.781  0.00  0.00    +0.000 C 
ATOM     21  C19 DHT A 931      26.410   3.744   6.389  0.00  0.00    +0.000 C 
ENDROOT
TORSDOF 0
ENDMDL
MODEL 2
REMARK VINA RESULT:      -9.9      1.547      2.886
REMARK  Name = ligand_pdbs\DHT_A_931 .pdb
REMARK  0 active torsions:
REMARK  status: ('A' for Active; 'I' for Inactive)
REMARK                            x       y       z     vdW  Elec       q    Type
REMARK                         _______ _______ _______ _____ _____    ______ ____
ROOT
ATOM      1  C1  DHT A 931      24.747   5.174   4.140  0.00  0.00    +0.000 C 
ATOM      2  C2  DHT A 931      24.707   6.696   3.911  0.00  0.00    +0.000 C 
ATOM      3  C3  DHT A 931      25.547   7.341   5.055  0.00  0.00    +0.000 C 
ATOM      4  O3  DHT A 931      25.058   8.263   5.692  0.00  0.00    +0.000 OA
ATOM      5  C4  DHT A 931      26.912   6.789   5.325  0.00  0.00    +0.000 C 
ATOM      6  C5  DHT A 931      26.873   5.258   5.580  0.00  0.00    +0.000 C 
ATOM      7  C6  DHT A 931      28.290   4.656   5.854  0.00  0.00    +0.000 C 
ATOM      8  C7  DHT A 931      28.163   3.148   6.130  0.00  0.00    +0.000 C 
ATOM      9  C8  DHT A 931      27.497   2.374   4.937  0.00  0.00    +0.000 C 
ATOM     10  C9  DHT A 931      26.088   2.998   4.641  0.00  0.00    +0.000 C 
ATOM     11  C10 DHT A 931      26.161   4.545   4.331  0.00  0.00    +0.000 C 
ATOM     12  C11 DHT A 931      25.425   2.190   3.473  0.00  0.00    +0.000 C 
ATOM     13  C12 DHT A 931      25.319   0.680   3.671  0.00  0.00    +0.000 C 
ATOM     14  C13 DHT A 931      26.664   0.038   4.093  0.00  0.00    +0.000 C 
ATOM     15  C14 DHT A 931      27.312   0.871   5.251  0.00  0.00    +0.000 C 
ATOM     16  C15 DHT A 931      28.579   0.044   5.573  0.00  0.00    +0.000 C 
ATOM     17  C16 DHT A 931      28.031  -1.414   5.514  0.00  0.00    +0.000 C 
ATOM     18  C17 DHT A 931      26.647  -1.296   4.819  0.00  0.00    +0.000 C 
ATOM     19  O17 DHT A 931      26.447  -2.414   3.947  0.00  0.00    +0.000 OA
ATOM     20  C18 DHT A 931      27.613  -0.025   2.827  0.00  0.00    +0.000 C 
ATOM     21  C19 DHT A 931      27.015   4.764   3.013  0.00  0.00    +0.000 C 
ENDROOT
TORSDOF 0
ENDMDL
MODEL 3
REMARK VINA RESULT:      -8.8      1.176      6.695
REMARK  Name = ligand_pdbs\DHT_A_931 .pdb
REMARK  0 active torsions:
REMARK  status: ('A' for Active; 'I' for Inactive)
REMARK                            x       y       z     vdW  Elec       q    Type
REMARK                         _______ _______ _______ _____ _____    ______ ____
ROOT
ATOM      1  C1  DHT A 931      27.796  -0.051   2.912  0.00  0.00    +0.000 C 
ATOM      2  C2  DHT A 931      28.161  -1.535   3.104  0.00  0.00    +0.000 C 
ATOM      3  C3  DHT A 931      29.513  -1.563   3.881  0.00  0.00    +0.000 C 
ATOM      4  O3  DHT A 931      30.422  -2.255   3.448  0.00  0.00    +0.000 OA
ATOM      5  C4  DHT A 931      29.634  -0.728   5.118  0.00  0.00    +0.000 C 
ATOM      6  C5  DHT A 931      29.283   0.760   4.843  0.00  0.00    +0.000 C 
ATOM      7  C6  DHT A 931      29.391   1.650   6.123  0.00  0.00    +0.000 C 
ATOM      8  C7  DHT A 931      29.065   3.110   5.763  0.00  0.00    +0.000 C 
ATOM      9  C8  DHT A 931      27.630   3.268   5.146  0.00  0.00    +0.000 C 
ATOM     10  C9  DHT A 931      27.510   2.350   3.879  0.00  0.00    +0.000 C 
ATOM     11  C10 DHT A 931      27.817   0.834   4.196  0.00  0.00    +0.000 C 
ATOM     12  C11 DHT A 931      26.085   2.549   3.257  0.00  0.00    +0.000 C 
ATOM     13  C12 DHT A 931      25.686   3.985   2.927  0.00  0.00    +0.000 C 
ATOM     14  C13 DHT A 931      25.912   4.955   4.114  0.00  0.00    +0.000 C 
ATOM     15  C14 DHT A 931      27.336   4.727   4.725  0.00  0.00    +0.000 C 
ATOM     16  C15 DHT A 931      27.394   5.816   5.821  0.00  0.00    +0.000 C 
ATOM     17  C16 DHT A 931      26.752   7.036   5.094  0.00  0.00    +0.000 C 
ATOM     18  C17 DHT A 931      26.073   6.439   3.831  0.00  0.00    +0.000 C 
ATOM     19  O17 DHT A 931      24.830   7.108   3.587  0.00  0.00    +0.000 OA
ATOM     20  C18 DHT A 931      24.776   4.710   5.189  0.00  0.00    +0.000 C 
ATOM     21  C19 DHT A 931      26.736   0.295   5.222  0.00  0.00    +0.000 C 
ENDROOT
TORSDOF 0
ENDMDL
MODEL 4
REMARK VINA RESULT:      -8.3      1.389      6.336
REMARK  Name = ligand_pdbs\DHT_A_931 .pdb
REMARK  0 active torsions:
REMARK  status: ('A' for Active; 'I' for Inactive)
REMARK                            x       y       z     vdW  Elec       q    Type
REMARK                         _______ _______ _______ _____ _____    ______ ____
ROOT
ATOM      1  C1  DHT A 931      28.303   0.363   5.126  0.00  0.00    +0.000 C 
ATOM      2  C2  DHT A 931      28.708  -1.058   4.692  0.00  0.00    +0.000 C 
ATOM      3  C3  DHT A 931      27.388  -1.878   4.568  0.00  0.00    +0.000 C 
ATOM      4  O3  DHT A 931      27.321  -2.965   5.123  0.00  0.00    +0.000 OA
ATOM      5  C4  DHT A 931      26.260  -1.286   3.783  0.00  0.00    +0.000 C 
ATOM      6  C5  DHT A 931      25.883   0.130   4.296  0.00  0.00    +0.000 C 
ATOM      7  C6  DHT A 931      24.714   0.775   3.483  0.00  0.00    +0.000 C 
ATOM      8  C7  DHT A 931      24.378   2.156   4.072  0.00  0.00    +0.000 C 
ATOM      9  C8  DHT A 931      25.610   3.129   4.060  0.00  0.00    +0.000 C 
ATOM     10  C9  DHT A 931      26.795   2.469   4.848  0.00  0.00    +0.000 C 
ATOM     11  C10 DHT A 931      27.196   1.054   4.273  0.00  0.00    +0.000 C 
ATOM     12  C11 DHT A 931      28.003   3.469   4.855  0.00  0.00    +0.000 C 
ATOM     13  C12 DHT A 931      27.714   4.872   5.383  0.00  0.00    +0.000 C 
ATOM     14  C13 DHT A 931      26.469   5.514   4.721  0.00  0.00    +0.000 C 
ATOM     15  C14 DHT A 931      25.282   4.491   4.715  0.00  0.00    +0.000 C 
ATOM     16  C15 DHT A 931      24.139   5.328   4.096  0.00  0.00    +0.000 C 
ATOM     17  C16 DHT A 931      24.329   6.702   4.806  0.00  0.00    +0.000 C 
ATOM     18  C17 DHT A 931      25.740   6.629   5.451  0.00  0.00    +0.000 C 
ATOM     19  O17 DHT A 931      26.390   7.900   5.339  0.00  0.00    +0.000 OA
ATOM     20  C18 DHT A 931      26.851   5.962   3.253  0.00  0.00    +0.000 C 
ATOM     21  C19 DHT A 931      27.715   1.233   2.785  0.00  0.00    +0.000 C 
ENDROOT
TORSDOF 0
ENDMDL
