MODEL 1
REMARK VINA RESULT:      -2.4      0.000      0.000
REMARK  Name = ligand_pdbs\DMS.pdb
REMARK  0 active torsions:
REMARK  status: ('A' for Active; 'I' for Inactive)
REMARK                            x       y       z     vdW  Elec       q    Type
REMARK                         _______ _______ _______ _____ _____    ______ ____
ROOT
ATOM      1  S   DMS A 701      22.943  11.065  10.817  0.00  0.00    +0.000 S 
ATOM      2  O   DMS A 701      23.966  10.136  10.273  0.00  0.00    +0.000 OA
ATOM      3  C1  DMS A 701      23.146  11.142  12.509  0.00  0.00    +0.000 C 
ATOM      4  C2  DMS A 701      23.281  12.687  10.383  0.00  0.00    +0.000 C 
ENDROOT
TORSDOF 0
ENDMDL
MODEL 2
REMARK VINA RESULT:      -2.4      1.991      1.991
REMARK  Name = ligand_pdbs\DMS.pdb
REMARK  0 active torsions:
REMARK  status: ('A' for Active; 'I' for Inactive)
REMARK                            x       y       z     vdW  Elec       q    Type
REMARK                         _______ _______ _______ _____ _____    ______ ____
ROOT
ATOM      1  S   DMS A 701      23.609  11.964  10.904  0.00  0.00    +0.000 S 
ATOM      2  O   DMS A 701      22.595  12.838  10.261  0.00  0.00    +0.000 OA
ATOM      3  C1  DMS A 701      22.996  11.471  12.418  0.00  0.00    +0.000 C 
ATOM      4  C2  DMS A 701      23.728  10.454  10.104  0.00  0.00    +0.000 C 
ENDROOT
TORSDOF 0
ENDMDL
MODEL 3
REMARK VINA RESULT:      -2.3      9.201      9.298
REMARK  Name = ligand_pdbs\DMS.pdb
REMARK  0 active torsions:
REMARK  status: ('A' for Active; 'I' for Inactive)
REMARK                            x       y       z     vdW  Elec       q    Type
REMARK                         _______ _______ _______ _____ _____    ______ ____
ROOT
ATOM      1  S   DMS A 701      24.212   4.872   4.922  0.00  0.00    +0.000 S 
ATOM      2  O   DMS A 701      22.920   4.395   4.364  0.00  0.00    +0.000 OA
ATOM      3  C1  DMS A 701      25.468   4.008   4.156  0.00  0.00    +0.000 C 
ATOM      4  C2  DMS A 701      24.564   6.467   4.405  0.00  0.00    +0.000 C 
ENDROOT
TORSDOF 0
ENDMDL
MODEL 4
REMARK VINA RESULT:      -2.2      7.958      7.977
REMARK  Name = ligand_pdbs\DMS.pdb
REMARK  0 active torsions:
REMARK  status: ('A' for Active; 'I' for Inactive)
REMARK                            x       y       z     vdW  Elec       q    Type
REMARK                         _______ _______ _______ _____ _____    ______ ____
ROOT
ATOM      1  S   DMS A 701      25.670   7.379   4.661  0.00  0.00    +0.000 S 
ATOM      2  O   DMS A 701      25.307   8.348   5.727  0.00  0.00    +0.000 OA
ATOM      3  C1  DMS A 701      27.142   6.637   5.102  0.00  0.00    +0.000 C 
ATOM      4  C2  DMS A 701      24.620   6.026   4.665  0.00  0.00    +0.000 C 
ENDROOT
TORSDOF 0
ENDMDL
MODEL 5
REMARK VINA RESULT:      -2.2      9.173      9.260
REMARK  Name = ligand_pdbs\DMS.pdb
REMARK  0 active torsions:
REMARK  status: ('A' for Active; 'I' for Inactive)
REMARK                            x       y       z     vdW  Elec       q    Type
REMARK                         _______ _______ _______ _____ _____    ______ ____
ROOT
ATOM      1  S   DMS A 701      24.626   5.399   4.835  0.00  0.00    +0.000 S 
ATOM      2  O   DMS A 701      24.441   6.712   4.164  0.00  0.00    +0.000 OA
ATOM      3  C1  DMS A 701      23.262   4.433   4.492  0.00  0.00    +0.000 C 
ATOM      4  C2  DMS A 701      25.861   4.482   4.079  0.00  0.00    +0.000 C 
ENDROOT
TORSDOF 0
ENDMDL
MODEL 6
REMARK VINA RESULT:      -2.1      8.702      8.794
REMARK  Name = ligand_pdbs\DMS.pdb
REMARK  0 active torsions:
REMARK  status: ('A' for Active; 'I' for Inactive)
REMARK                            x       y       z     vdW  Elec       q    Type
REMARK                         _______ _______ _______ _____ _____    ______ ____
ROOT
ATOM      1  S   DMS A 701      25.040   5.103   4.560  0.00  0.00    +0.000 S 
ATOM      2  O   DMS A 701      25.733   4.582   5.766  0.00  0.00    +0.000 OA
ATOM      3  C1  DMS A 701      23.429   4.544   4.592  0.00  0.00    +0.000 C 
ATOM      4  C2  DMS A 701      24.790   6.794   4.666  0.00  0.00    +0.000 C 
ENDROOT
TORSDOF 0
ENDMDL
MODEL 7
REMARK VINA RESULT:      -2.1      7.980      8.199
REMARK  Name = ligand_pdbs\DMS.pdb
REMARK  0 active torsions:
REMARK  status: ('A' for Active; 'I' for Inactive)
REMARK                            x       y       z     vdW  Elec       q    Type
REMARK                         _______ _______ _______ _____ _____    ______ ____
ROOT
ATOM      1  S   DMS A 701      25.694   6.534   4.568  0.00  0.00    +0.000 S 
ATOM      2  O   DMS A 701      24.752   5.533   5.132  0.00  0.00    +0.000 OA
ATOM      3  C1  DMS A 701      25.473   8.001   5.413  0.00  0.00    +0.000 C 
ATOM      4  C2  DMS A 701      27.315   6.170   4.986  0.00  0.00    +0.000 C 
ENDROOT
TORSDOF 0
ENDMDL
MODEL 8
REMARK VINA RESULT:      -2.1      8.465      8.515
REMARK  Name = ligand_pdbs\DMS.pdb
REMARK  0 active torsions:
REMARK  status: ('A' for Active; 'I' for Inactive)
REMARK                            x       y       z     vdW  Elec       q    Type
REMARK                         _______ _______ _______ _____ _____    ______ ____
ROOT
ATOM      1  S   DMS A 701      26.491   6.113   4.644  0.00  0.00    +0.000 S 
ATOM      2  O   DMS A 701      27.566   6.922   5.275  0.00  0.00    +0.000 OA
ATOM      3  C1  DMS A 701      26.258   4.714   5.592  0.00  0.00    +0.000 C 
ATOM      4  C2  DMS A 701      24.963   6.868   4.813  0.00  0.00    +0.000 C 
ENDROOT
TORSDOF 0
ENDMDL
MODEL 9
REMARK VINA RESULT:      -2.1      9.429      9.594
REMARK  Name = ligand_pdbs\DMS.pdb
REMARK  0 active torsions:
REMARK  status: ('A' for Active; 'I' for Inactive)
REMARK                            x       y       z     vdW  Elec       q    Type
REMARK                         _______ _______ _______ _____ _____    ______ ____
ROOT
ATOM      1  S   DMS A 701      27.552   5.334   4.683  0.00  0.00    +0.000 S 
ATOM      2  O   DMS A 701      27.272   5.063   3.249  0.00  0.00    +0.000 OA
ATOM      3  C1  DMS A 701      26.919   6.873   5.062  0.00  0.00    +0.000 C 
ATOM      4  C2  DMS A 701      26.599   4.341   5.703  0.00  0.00    +0.000 C 
ENDROOT
TORSDOF 0
ENDMDL
