MODEL 1
REMARK VINA RESULT:      -5.6      0.000      0.000
REMARK  Name = ligand_pdbs\DQL.pdb
REMARK  0 active torsions:
REMARK  status: ('A' for Active; 'I' for Inactive)
REMARK                            x       y       z     vdW  Elec       q    Type
REMARK                         _______ _______ _______ _____ _____    ______ ____
ROOT
ATOM      1  CAD DQL A2102      24.269   5.697   4.678  0.00  0.00    +0.000 C 
ATOM      2  CAJ DQL A2102      24.004   4.341   4.580  0.00  0.00    +0.000 C 
ATOM      3  OAB DQL A2102      22.689   3.930   4.292  0.00  0.00    +0.000 OA
ATOM      4  CAL DQL A2102      25.054   3.406   4.758  0.00  0.00    +0.000 C 
ATOM      5  NAF DQL A2102      24.913   2.024   4.683  0.00  0.00    +0.000 NA
ATOM      6  CAI DQL A2102      26.032   1.327   4.887  0.00  0.00    +0.000 C 
ATOM      7  NAA DQL A2102      26.152  -0.108   4.865  0.00  0.00    +0.000 NA
ATOM      8  SAG DQL A2102      27.311   2.422   5.167  0.00  0.00    +0.000 S 
ATOM      9  CAK DQL A2102      26.351   3.839   5.032  0.00  0.00    +0.000 C 
ATOM     10  CAE DQL A2102      26.614   5.205   5.139  0.00  0.00    +0.000 C 
ATOM     11  CAH DQL A2102      25.570   6.113   4.965  0.00  0.00    +0.000 C 
ATOM     12  SAC DQL A2102      25.919   7.877   5.109  0.00  0.00    +0.000 S 
ENDROOT
TORSDOF 0
ENDMDL
MODEL 2
REMARK VINA RESULT:      -5.6      2.495      4.297
REMARK  Name = ligand_pdbs\DQL.pdb
REMARK  0 active torsions:
REMARK  status: ('A' for Active; 'I' for Inactive)
REMARK                            x       y       z     vdW  Elec       q    Type
REMARK                         _______ _______ _______ _____ _____    ______ ____
ROOT
ATOM      1  CAD DQL A2102      24.422   2.335   4.502  0.00  0.00    +0.000 C 
ATOM      2  CAJ DQL A2102      24.085   3.677   4.473  0.00  0.00    +0.000 C 
ATOM      3  OAB DQL A2102      22.728   4.029   4.345  0.00  0.00    +0.000 OA
ATOM      4  CAL DQL A2102      25.101   4.659   4.584  0.00  0.00    +0.000 C 
ATOM      5  NAF DQL A2102      24.886   6.035   4.570  0.00  0.00    +0.000 NA
ATOM      6  CAI DQL A2102      25.985   6.782   4.685  0.00  0.00    +0.000 C 
ATOM      7  NAA DQL A2102      26.034   8.221   4.695  0.00  0.00    +0.000 NA
ATOM      8  SAG DQL A2102      27.334   5.746   4.831  0.00  0.00    +0.000 S 
ATOM      9  CAK DQL A2102      26.437   4.286   4.722  0.00  0.00    +0.000 C 
ATOM     10  CAE DQL A2102      26.776   2.933   4.741  0.00  0.00    +0.000 C 
ATOM     11  CAH DQL A2102      25.766   1.978   4.628  0.00  0.00    +0.000 C 
ATOM     12  SAC DQL A2102      26.215   0.231   4.650  0.00  0.00    +0.000 S 
ENDROOT
TORSDOF 0
ENDMDL
MODEL 3
REMARK VINA RESULT:      -5.5      4.012      4.787
REMARK  Name = ligand_pdbs\DQL.pdb
REMARK  0 active torsions:
REMARK  status: ('A' for Active; 'I' for Inactive)
REMARK                            x       y       z     vdW  Elec       q    Type
REMARK                         _______ _______ _______ _____ _____    ______ ____
ROOT
ATOM      1  CAD DQL A2102      28.750   3.149   5.475  0.00  0.00    +0.000 C 
ATOM      2  CAJ DQL A2102      29.298   1.887   5.634  0.00  0.00    +0.000 C 
ATOM      3  OAB DQL A2102      30.159   1.659   6.724  0.00  0.00    +0.000 OA
ATOM      4  CAL DQL A2102      28.976   0.860   4.712  0.00  0.00    +0.000 C 
ATOM      5  NAF DQL A2102      29.461  -0.444   4.768  0.00  0.00    +0.000 NA
ATOM      6  CAI DQL A2102      29.032  -1.251   3.797  0.00  0.00    +0.000 C 
ATOM      7  NAA DQL A2102      29.387  -2.637   3.629  0.00  0.00    +0.000 NA
ATOM      8  SAG DQL A2102      27.977  -0.371   2.785  0.00  0.00    +0.000 S 
ATOM      9  CAK DQL A2102      28.111   1.108   3.646  0.00  0.00    +0.000 C 
ATOM     10  CAE DQL A2102      27.568   2.382   3.483  0.00  0.00    +0.000 C 
ATOM     11  CAH DQL A2102      27.897   3.384   4.396  0.00  0.00    +0.000 C 
ATOM     12  SAC DQL A2102      27.191   5.029   4.173  0.00  0.00    +0.000 S 
ENDROOT
TORSDOF 0
ENDMDL
MODEL 4
REMARK VINA RESULT:      -5.5      1.406      1.496
REMARK  Name = ligand_pdbs\DQL.pdb
REMARK  0 active torsions:
REMARK  status: ('A' for Active; 'I' for Inactive)
REMARK                            x       y       z     vdW  Elec       q    Type
REMARK                         _______ _______ _______ _____ _____    ______ ____
ROOT
ATOM      1  CAD DQL A2102      24.945   4.976   4.665  0.00  0.00    +0.000 C 
ATOM      2  CAJ DQL A2102      25.112   3.604   4.759  0.00  0.00    +0.000 C 
ATOM      3  OAB DQL A2102      24.018   2.770   4.460  0.00  0.00    +0.000 OA
ATOM      4  CAL DQL A2102      26.369   3.074   5.140  0.00  0.00    +0.000 C 
ATOM      5  NAF DQL A2102      26.659   1.719   5.268  0.00  0.00    +0.000 NA
ATOM      6  CAI DQL A2102      27.908   1.438   5.641  0.00  0.00    +0.000 C 
ATOM      7  NAA DQL A2102      28.456   0.122   5.845  0.00  0.00    +0.000 NA
ATOM      8  SAG DQL A2102      28.763   2.904   5.827  0.00  0.00    +0.000 S 
ATOM      9  CAK DQL A2102      27.441   3.922   5.421  0.00  0.00    +0.000 C 
ATOM     10  CAE DQL A2102      27.269   5.303   5.334  0.00  0.00    +0.000 C 
ATOM     11  CAH DQL A2102      26.023   5.810   4.962  0.00  0.00    +0.000 C 
ATOM     12  SAC DQL A2102      25.809   7.598   4.857  0.00  0.00    +0.000 S 
ENDROOT
TORSDOF 0
ENDMDL
MODEL 5
REMARK VINA RESULT:      -5.4      3.677      5.522
REMARK  Name = ligand_pdbs\DQL.pdb
REMARK  0 active torsions:
REMARK  status: ('A' for Active; 'I' for Inactive)
REMARK                            x       y       z     vdW  Elec       q    Type
REMARK                         _______ _______ _______ _____ _____    ______ ____
ROOT
ATOM      1  CAD DQL A2102      28.874   1.192   4.761  0.00  0.00    +0.000 C 
ATOM      2  CAJ DQL A2102      28.920   2.428   5.383  0.00  0.00    +0.000 C 
ATOM      3  OAB DQL A2102      29.782   2.597   6.483  0.00  0.00    +0.000 OA
ATOM      4  CAL DQL A2102      28.114   3.488   4.900  0.00  0.00    +0.000 C 
ATOM      5  NAF DQL A2102      28.075   4.771   5.439  0.00  0.00    +0.000 NA
ATOM      6  CAI DQL A2102      27.242   5.618   4.831  0.00  0.00    +0.000 C 
ATOM      7  NAA DQL A2102      27.017   6.992   5.194  0.00  0.00    +0.000 NA
ATOM      8  SAG DQL A2102      26.491   4.802   3.533  0.00  0.00    +0.000 S 
ATOM      9  CAK DQL A2102      27.275   3.299   3.802  0.00  0.00    +0.000 C 
ATOM     10  CAE DQL A2102      27.224   2.051   3.181  0.00  0.00    +0.000 C 
ATOM     11  CAH DQL A2102      28.020   1.015   3.671  0.00  0.00    +0.000 C 
ATOM     12  SAC DQL A2102      27.943  -0.597   2.864  0.00  0.00    +0.000 S 
ENDROOT
TORSDOF 0
ENDMDL
MODEL 6
REMARK VINA RESULT:      -5.4      2.556      4.564
REMARK  Name = ligand_pdbs\DQL.pdb
REMARK  0 active torsions:
REMARK  status: ('A' for Active; 'I' for Inactive)
REMARK                            x       y       z     vdW  Elec       q    Type
REMARK                         _______ _______ _______ _____ _____    ______ ____
ROOT
ATOM      1  CAD DQL A2102      26.521   0.865   3.372  0.00  0.00    +0.000 C 
ATOM      2  CAJ DQL A2102      25.583   1.862   3.583  0.00  0.00    +0.000 C 
ATOM      3  OAB DQL A2102      24.219   1.546   3.443  0.00  0.00    +0.000 OA
ATOM      4  CAL DQL A2102      26.012   3.164   3.943  0.00  0.00    +0.000 C 
ATOM      5  NAF DQL A2102      25.168   4.245   4.182  0.00  0.00    +0.000 NA
ATOM      6  CAI DQL A2102      25.782   5.384   4.505  0.00  0.00    +0.000 C 
ATOM      7  NAA DQL A2102      25.139   6.640   4.796  0.00  0.00    +0.000 NA
ATOM      8  SAG DQL A2102      27.466   5.106   4.529  0.00  0.00    +0.000 S 
ATOM      9  CAK DQL A2102      27.370   3.450   4.086  0.00  0.00    +0.000 C 
ATOM     10  CAE DQL A2102      28.312   2.447   3.864  0.00  0.00    +0.000 C 
ATOM     11  CAH DQL A2102      27.876   1.171   3.507  0.00  0.00    +0.000 C 
ATOM     12  SAC DQL A2102      29.103  -0.119   3.218  0.00  0.00    +0.000 S 
ENDROOT
TORSDOF 0
ENDMDL
MODEL 7
REMARK VINA RESULT:      -5.4      2.874      3.478
REMARK  Name = ligand_pdbs\DQL.pdb
REMARK  0 active torsions:
REMARK  status: ('A' for Active; 'I' for Inactive)
REMARK                            x       y       z     vdW  Elec       q    Type
REMARK                         _______ _______ _______ _____ _____    ______ ____
ROOT
ATOM      1  CAD DQL A2102      26.492   3.242   3.415  0.00  0.00    +0.000 C 
ATOM      2  CAJ DQL A2102      26.481   1.905   3.054  0.00  0.00    +0.000 C 
ATOM      3  OAB DQL A2102      25.512   1.463   2.134  0.00  0.00    +0.000 OA
ATOM      4  CAL DQL A2102      27.441   1.021   3.605  0.00  0.00    +0.000 C 
ATOM      5  NAF DQL A2102      27.531  -0.339   3.320  0.00  0.00    +0.000 NA
ATOM      6  CAI DQL A2102      28.510  -0.988   3.952  0.00  0.00    +0.000 C 
ATOM      7  NAA DQL A2102      28.811  -2.391   3.831  0.00  0.00    +0.000 NA
ATOM      8  SAG DQL A2102      29.362   0.127   4.924  0.00  0.00    +0.000 S 
ATOM      9  CAK DQL A2102      28.399   1.485   4.507  0.00  0.00    +0.000 C 
ATOM     10  CAE DQL A2102      28.403   2.830   4.876  0.00  0.00    +0.000 C 
ATOM     11  CAH DQL A2102      27.449   3.688   4.328  0.00  0.00    +0.000 C 
ATOM     12  SAC DQL A2102      27.460   5.425   4.814  0.00  0.00    +0.000 S 
ENDROOT
TORSDOF 0
ENDMDL
MODEL 8
REMARK VINA RESULT:      -5.3      3.351      5.657
REMARK  Name = ligand_pdbs\DQL.pdb
REMARK  0 active torsions:
REMARK  status: ('A' for Active; 'I' for Inactive)
REMARK                            x       y       z     vdW  Elec       q    Type
REMARK                         _______ _______ _______ _____ _____    ______ ____
ROOT
ATOM      1  CAD DQL A2102      28.409  -0.005   5.686  0.00  0.00    +0.000 C 
ATOM      2  CAJ DQL A2102      28.505   1.355   5.929  0.00  0.00    +0.000 C 
ATOM      3  OAB DQL A2102      29.673   1.850   6.537  0.00  0.00    +0.000 OA
ATOM      4  CAL DQL A2102      27.441   2.212   5.553  0.00  0.00    +0.000 C 
ATOM      5  NAF DQL A2102      27.422   3.591   5.742  0.00  0.00    +0.000 NA
ATOM      6  CAI DQL A2102      26.318   4.207   5.317  0.00  0.00    +0.000 C 
ATOM      7  NAA DQL A2102      26.052   5.620   5.399  0.00  0.00    +0.000 NA
ATOM      8  SAG DQL A2102      25.270   3.040   4.643  0.00  0.00    +0.000 S 
ATOM      9  CAK DQL A2102      26.298   1.698   4.941  0.00  0.00    +0.000 C 
ATOM     10  CAE DQL A2102      26.199   0.327   4.706  0.00  0.00    +0.000 C 
ATOM     11  CAH DQL A2102      27.253  -0.505   5.085  0.00  0.00    +0.000 C 
ATOM     12  SAC DQL A2102      27.114  -2.278   4.780  0.00  0.00    +0.000 S 
ENDROOT
TORSDOF 0
ENDMDL
MODEL 9
REMARK VINA RESULT:      -5.3      2.487      4.544
REMARK  Name = ligand_pdbs\DQL.pdb
REMARK  0 active torsions:
REMARK  status: ('A' for Active; 'I' for Inactive)
REMARK                            x       y       z     vdW  Elec       q    Type
REMARK                         _______ _______ _______ _____ _____    ______ ____
ROOT
ATOM      1  CAD DQL A2102      27.739   0.335   5.243  0.00  0.00    +0.000 C 
ATOM      2  CAJ DQL A2102      26.491   0.688   4.758  0.00  0.00    +0.000 C 
ATOM      3  OAB DQL A2102      25.737  -0.280   4.069  0.00  0.00    +0.000 OA
ATOM      4  CAL DQL A2102      25.999   2.000   4.973  0.00  0.00    +0.000 C 
ATOM      5  NAF DQL A2102      24.764   2.471   4.537  0.00  0.00    +0.000 NA
ATOM      6  CAI DQL A2102      24.500   3.742   4.844  0.00  0.00    +0.000 C 
ATOM      7  NAA DQL A2102      23.300   4.463   4.507  0.00  0.00    +0.000 NA
ATOM      8  SAG DQL A2102      25.822   4.375   5.718  0.00  0.00    +0.000 S 
ATOM      9  CAK DQL A2102      26.761   2.939   5.668  0.00  0.00    +0.000 C 
ATOM     10  CAE DQL A2102      28.022   2.584   6.148  0.00  0.00    +0.000 C 
ATOM     11  CAH DQL A2102      28.494   1.290   5.925  0.00  0.00    +0.000 C 
ATOM     12  SAC DQL A2102      30.128   0.842   6.546  0.00  0.00    +0.000 S 
ENDROOT
TORSDOF 0
ENDMDL
