MODEL 1
REMARK VINA RESULT:      -3.4      0.000      0.000
REMARK  Name = ligand_pdbs\DTT_A_1003 .pdb
REMARK  3 active torsions:
REMARK  status: ('A' for Active; 'I' for Inactive)
REMARK    1  A    between atoms: C1_2  and  C2_3
REMARK    2  A    between atoms: C2_3  and  C3_5
REMARK    3  A    between atoms: C3_5  and  C4_7
REMARK                            x       y       z     vdW  Elec       q    Type
REMARK                         _______ _______ _______ _____ _____    ______ ____
ROOT
ATOM      1  C2  DTT A1003      24.460   5.292   5.034  0.00  0.00    +0.000 C 
ATOM      2  O2  DTT A1003      23.560   4.844   4.610  0.00  0.00    +0.000 OA
ENDROOT
BRANCH   1   4
ATOM      3  S1  DTT A1003      26.053   7.347   5.072  0.00  0.00    +0.000 S 
ATOM      4  C1  DTT A1003      24.558   6.644   4.358  0.00  0.00    +0.000 C 
ENDBRANCH   1   4
BRANCH   1   5
ATOM      5  C3  DTT A1003      25.670   4.493   5.083  0.00  0.00    +0.000 C 
ATOM      6  O3  DTT A1003      25.619   3.621   4.027  0.00  0.00    +0.000 OA
BRANCH   5   7
ATOM      7  C4  DTT A1003      25.916   3.629   6.225  0.00  0.00    +0.000 C 
ATOM      8  S4  DTT A1003      27.612   3.766   5.982  0.00  0.00    +0.000 S 
ENDBRANCH   5   7
ENDBRANCH   1   5
TORSDOF 3
ENDMDL
MODEL 2
REMARK VINA RESULT:      -3.4      2.237      3.748
REMARK  Name = ligand_pdbs\DTT_A_1003 .pdb
REMARK  3 active torsions:
REMARK  status: ('A' for Active; 'I' for Inactive)
REMARK    1  A    between atoms: C1_2  and  C2_3
REMARK    2  A    between atoms: C2_3  and  C3_5
REMARK    3  A    between atoms: C3_5  and  C4_7
REMARK                            x       y       z     vdW  Elec       q    Type
REMARK                         _______ _______ _______ _____ _____    ______ ____
ROOT
ATOM      1  C2  DTT A1003      27.707   5.234   4.359  0.00  0.00    +0.000 C 
ATOM      2  O2  DTT A1003      27.727   5.013   3.291  0.00  0.00    +0.000 OA
ENDROOT
BRANCH   1   4
ATOM      3  S1  DTT A1003      27.723   2.712   3.727  0.00  0.00    +0.000 S 
ATOM      4  C1  DTT A1003      28.062   3.918   5.020  0.00  0.00    +0.000 C 
ENDBRANCH   1   4
BRANCH   1   5
ATOM      5  C3  DTT A1003      26.563   5.950   4.892  0.00  0.00    +0.000 C 
ATOM      6  O3  DTT A1003      25.864   5.067   5.672  0.00  0.00    +0.000 OA
BRANCH   5   7
ATOM      7  C4  DTT A1003      25.555   6.473   3.985  0.00  0.00    +0.000 C 
ATOM      8  S4  DTT A1003      24.374   5.431   4.674  0.00  0.00    +0.000 S 
ENDBRANCH   5   7
ENDBRANCH   1   5
TORSDOF 3
ENDMDL
MODEL 3
REMARK VINA RESULT:      -3.3      2.255      2.519
REMARK  Name = ligand_pdbs\DTT_A_1003 .pdb
REMARK  3 active torsions:
REMARK  status: ('A' for Active; 'I' for Inactive)
REMARK    1  A    between atoms: C1_2  and  C2_3
REMARK    2  A    between atoms: C2_3  and  C3_5
REMARK    3  A    between atoms: C3_5  and  C4_7
REMARK                            x       y       z     vdW  Elec       q    Type
REMARK                         _______ _______ _______ _____ _____    ______ ____
ROOT
ATOM      1  C2  DTT A1003      26.318   4.707   5.562  0.00  0.00    +0.000 C 
ATOM      2  O2  DTT A1003      25.652   3.931   5.944  0.00  0.00    +0.000 OA
ENDROOT
BRANCH   1   4
ATOM      3  S1  DTT A1003      23.861   4.787   4.716  0.00  0.00    +0.000 S 
ATOM      4  C1  DTT A1003      25.387   5.719   4.926  0.00  0.00    +0.000 C 
ENDBRANCH   1   4
BRANCH   1   5
ATOM      5  C3  DTT A1003      27.475   4.300   4.786  0.00  0.00    +0.000 C 
ATOM      6  O3  DTT A1003      27.997   5.432   4.218  0.00  0.00    +0.000 OA
BRANCH   5   7
ATOM      7  C4  DTT A1003      27.304   3.401   3.657  0.00  0.00    +0.000 C 
ATOM      8  S4  DTT A1003      28.394   2.278   4.368  0.00  0.00    +0.000 S 
ENDBRANCH   5   7
ENDBRANCH   1   5
TORSDOF 3
ENDMDL
MODEL 4
REMARK VINA RESULT:      -3.3      2.264      2.469
REMARK  Name = ligand_pdbs\DTT_A_1003 .pdb
REMARK  3 active torsions:
REMARK  status: ('A' for Active; 'I' for Inactive)
REMARK    1  A    between atoms: C1_2  and  C2_3
REMARK    2  A    between atoms: C2_3  and  C3_5
REMARK    3  A    between atoms: C3_5  and  C4_7
REMARK                            x       y       z     vdW  Elec       q    Type
REMARK                         _______ _______ _______ _____ _____    ______ ____
ROOT
ATOM      1  C2  DTT A1003      27.574   5.535   4.487  0.00  0.00    +0.000 C 
ATOM      2  O2  DTT A1003      27.652   6.441   5.091  0.00  0.00    +0.000 OA
ENDROOT
BRANCH   1   4
ATOM      3  S1  DTT A1003      25.424   6.970   4.772  0.00  0.00    +0.000 S 
ATOM      4  C1  DTT A1003      26.196   5.620   3.864  0.00  0.00    +0.000 C 
ENDBRANCH   1   4
BRANCH   1   5
ATOM      5  C3  DTT A1003      27.945   4.270   5.093  0.00  0.00    +0.000 C 
ATOM      6  O3  DTT A1003      27.867   3.316   4.112  0.00  0.00    +0.000 OA
BRANCH   5   7
ATOM      7  C4  DTT A1003      27.134   3.721   6.166  0.00  0.00    +0.000 C 
ATOM      8  S4  DTT A1003      27.663   2.133   5.773  0.00  0.00    +0.000 S 
ENDBRANCH   5   7
ENDBRANCH   1   5
TORSDOF 3
ENDMDL
MODEL 5
REMARK VINA RESULT:      -3.3      1.926      3.645
REMARK  Name = ligand_pdbs\DTT_A_1003 .pdb
REMARK  3 active torsions:
REMARK  status: ('A' for Active; 'I' for Inactive)
REMARK    1  A    between atoms: C1_2  and  C2_3
REMARK    2  A    between atoms: C2_3  and  C3_5
REMARK    3  A    between atoms: C3_5  and  C4_7
REMARK                            x       y       z     vdW  Elec       q    Type
REMARK                         _______ _______ _______ _____ _____    ______ ____
ROOT
ATOM      1  C2  DTT A1003      26.626   4.174   5.425  0.00  0.00    +0.000 C 
ATOM      2  O2  DTT A1003      25.823   4.049   6.153  0.00  0.00    +0.000 OA
ENDROOT
BRANCH   1   4
ATOM      3  S1  DTT A1003      27.990   2.034   5.993  0.00  0.00    +0.000 S 
ATOM      4  C1  DTT A1003      27.884   3.820   6.192  0.00  0.00    +0.000 C 
ENDBRANCH   1   4
BRANCH   1   5
ATOM      5  C3  DTT A1003      26.657   5.391   4.637  0.00  0.00    +0.000 C 
ATOM      6  O3  DTT A1003      27.297   5.094   3.462  0.00  0.00    +0.000 OA
BRANCH   5   7
ATOM      7  C4  DTT A1003      27.379   6.551   5.132  0.00  0.00    +0.000 C 
ATOM      8  S4  DTT A1003      25.951   7.503   5.026  0.00  0.00    +0.000 S 
ENDBRANCH   5   7
ENDBRANCH   1   5
TORSDOF 3
ENDMDL
MODEL 6
REMARK VINA RESULT:      -3.2      1.506      3.438
REMARK  Name = ligand_pdbs\DTT_A_1003 .pdb
REMARK  3 active torsions:
REMARK  status: ('A' for Active; 'I' for Inactive)
REMARK    1  A    between atoms: C1_2  and  C2_3
REMARK    2  A    between atoms: C2_3  and  C3_5
REMARK    3  A    between atoms: C3_5  and  C4_7
REMARK                            x       y       z     vdW  Elec       q    Type
REMARK                         _______ _______ _______ _____ _____    ______ ____
ROOT
ATOM      1  C2  DTT A1003      24.860   3.730   5.923  0.00  0.00    +0.000 C 
ATOM      2  O2  DTT A1003      25.799   3.751   6.479  0.00  0.00    +0.000 OA
ENDROOT
BRANCH   1   4
ATOM      3  S1  DTT A1003      26.684   2.039   5.164  0.00  0.00    +0.000 S 
ATOM      4  C1  DTT A1003      24.931   2.449   5.118  0.00  0.00    +0.000 C 
ENDBRANCH   1   4
BRANCH   1   5
ATOM      5  C3  DTT A1003      24.453   4.929   5.215  0.00  0.00    +0.000 C 
ATOM      6  O3  DTT A1003      23.298   4.627   4.543  0.00  0.00    +0.000 OA
BRANCH   5   7
ATOM      7  C4  DTT A1003      25.313   5.481   4.182  0.00  0.00    +0.000 C 
ATOM      8  S4  DTT A1003      25.132   7.054   4.852  0.00  0.00    +0.000 S 
ENDBRANCH   5   7
ENDBRANCH   1   5
TORSDOF 3
ENDMDL
MODEL 7
REMARK VINA RESULT:      -3.2      2.617      4.313
REMARK  Name = ligand_pdbs\DTT_A_1003 .pdb
REMARK  3 active torsions:
REMARK  status: ('A' for Active; 'I' for Inactive)
REMARK    1  A    between atoms: C1_2  and  C2_3
REMARK    2  A    between atoms: C2_3  and  C3_5
REMARK    3  A    between atoms: C3_5  and  C4_7
REMARK                            x       y       z     vdW  Elec       q    Type
REMARK                         _______ _______ _______ _____ _____    ______ ____
ROOT
ATOM      1  C2  DTT A1003      27.612   2.807   5.407  0.00  0.00    +0.000 C 
ATOM      2  O2  DTT A1003      27.635   2.266   6.355  0.00  0.00    +0.000 OA
ENDROOT
BRANCH   1   4
ATOM      3  S1  DTT A1003      30.129   2.247   5.743  0.00  0.00    +0.000 S 
ATOM      4  C1  DTT A1003      28.738   2.195   4.601  0.00  0.00    +0.000 C 
ENDBRANCH   1   4
BRANCH   1   5
ATOM      5  C3  DTT A1003      27.541   4.256   5.444  0.00  0.00    +0.000 C 
ATOM      6  O3  DTT A1003      26.271   4.586   5.839  0.00  0.00    +0.000 OA
BRANCH   5   7
ATOM      7  C4  DTT A1003      27.725   5.017   4.220  0.00  0.00    +0.000 C 
ATOM      8  S4  DTT A1003      27.209   6.450   5.017  0.00  0.00    +0.000 S 
ENDBRANCH   5   7
ENDBRANCH   1   5
TORSDOF 3
ENDMDL
MODEL 8
REMARK VINA RESULT:      -3.2      2.768      4.050
REMARK  Name = ligand_pdbs\DTT_A_1003 .pdb
REMARK  3 active torsions:
REMARK  status: ('A' for Active; 'I' for Inactive)
REMARK    1  A    between atoms: C1_2  and  C2_3
REMARK    2  A    between atoms: C2_3  and  C3_5
REMARK    3  A    between atoms: C3_5  and  C4_7
REMARK                            x       y       z     vdW  Elec       q    Type
REMARK                         _______ _______ _______ _____ _____    ______ ____
ROOT
ATOM      1  C2  DTT A1003      26.904   2.748   3.827  0.00  0.00    +0.000 C 
ATOM      2  O2  DTT A1003      27.946   2.951   3.573  0.00  0.00    +0.000 OA
ENDROOT
BRANCH   1   4
ATOM      3  S1  DTT A1003      24.824   1.245   3.409  0.00  0.00    +0.000 S 
ATOM      4  C1  DTT A1003      26.493   1.651   2.868  0.00  0.00    +0.000 C 
ENDBRANCH   1   4
BRANCH   1   5
ATOM      5  C3  DTT A1003      25.999   3.874   3.966  0.00  0.00    +0.000 C 
ATOM      6  O3  DTT A1003      26.553   4.923   3.280  0.00  0.00    +0.000 OA
BRANCH   5   7
ATOM      7  C4  DTT A1003      25.739   4.430   5.284  0.00  0.00    +0.000 C 
ATOM      8  S4  DTT A1003      24.155   4.886   4.794  0.00  0.00    +0.000 S 
ENDBRANCH   5   7
ENDBRANCH   1   5
TORSDOF 3
ENDMDL
MODEL 9
REMARK VINA RESULT:      -3.2      2.311      2.914
REMARK  Name = ligand_pdbs\DTT_A_1003 .pdb
REMARK  3 active torsions:
REMARK  status: ('A' for Active; 'I' for Inactive)
REMARK    1  A    between atoms: C1_2  and  C2_3
REMARK    2  A    between atoms: C2_3  and  C3_5
REMARK    3  A    between atoms: C3_5  and  C4_7
REMARK                            x       y       z     vdW  Elec       q    Type
REMARK                         _______ _______ _______ _____ _____    ______ ____
ROOT
ATOM      1  C2  DTT A1003      26.609   4.076   4.007  0.00  0.00    +0.000 C 
ATOM      2  O2  DTT A1003      27.031   3.324   3.338  0.00  0.00    +0.000 OA
ENDROOT
BRANCH   1   4
ATOM      3  S1  DTT A1003      27.121   6.422   5.004  0.00  0.00    +0.000 S 
ATOM      4  C1  DTT A1003      27.815   4.831   4.527  0.00  0.00    +0.000 C 
ENDBRANCH   1   4
BRANCH   1   5
ATOM      5  C3  DTT A1003      25.627   3.651   4.986  0.00  0.00    +0.000 C 
ATOM      6  O3  DTT A1003      26.193   2.633   5.708  0.00  0.00    +0.000 OA
BRANCH   5   7
ATOM      7  C4  DTT A1003      24.362   3.089   4.541  0.00  0.00    +0.000 C 
ATOM      8  S4  DTT A1003      23.626   4.640   4.631  0.00  0.00    +0.000 S 
ENDBRANCH   5   7
ENDBRANCH   1   5
TORSDOF 3
ENDMDL
