MODEL 1
REMARK VINA RESULT:      -1.8      0.000      0.000
REMARK  Name = ligand_pdbs\DW9.pdb
REMARK  2 active torsions:
REMARK  status: ('A' for Active; 'I' for Inactive)
REMARK    1  A    between atoms: C4_4  and  S12_22
REMARK    2  A    between atoms: S12_22  and  S13_23
REMARK                            x       y       z     vdW  Elec       q    Type
REMARK                         _______ _______ _______ _____ _____    ______ ____
ROOT
ATOM      1  S12 DW9 A2103      23.717   2.293   4.510  0.00  0.00    +0.000 S 
ENDROOT
BRANCH   1  12
ATOM      2  C14 DW9 A2103      26.413   0.477   4.164  0.00  0.00    +0.000 C 
ATOM      3  C15 DW9 A2103      27.340   1.364   4.715  0.00  0.00    +0.000 C 
ATOM      4  C16 DW9 A2103      28.659   0.950   4.761  0.00  0.00    +0.000 C 
ATOM      5  C17 DW9 A2103      28.987  -0.353   4.286  0.00  0.00    +0.000 C 
ATOM      6  C18 DW9 A2103      28.005  -1.212   3.798  0.00  0.00    +0.000 C 
ATOM      7  C19 DW9 A2103      26.710  -0.800   3.755  0.00  0.00    +0.000 C 
ATOM      8  C21 DW9 A2103      30.338  -2.148   3.800  0.00  0.00    +0.000 C 
ATOM      9  N20 DW9 A2103      30.259  -0.898   4.284  0.00  0.00    +0.000 NA
ATOM     10  N24 DW9 A2103      31.556  -2.911   3.697  0.00  0.00    +0.000 NA
ATOM     11  O23 DW9 A2103      29.654   1.822   5.261  0.00  0.00    +0.000 OA
ATOM     12  S13 DW9 A2103      24.670   0.802   4.075  0.00  0.00    +0.000 S 
ATOM     13  S22 DW9 A2103      28.778  -2.662   3.367  0.00  0.00    +0.000 S 
ENDBRANCH   1  12
BRANCH   1  17
ATOM     14  C1  DW9 A2103      25.798   6.227   4.063  0.00  0.00    +0.000 C 
ATOM     15  C2  DW9 A2103      24.508   6.312   4.590  0.00  0.00    +0.000 C 
ATOM     16  C3  DW9 A2103      23.720   5.174   4.795  0.00  0.00    +0.000 C 
ATOM     17  C4  DW9 A2103      24.307   3.967   4.422  0.00  0.00    +0.000 C 
ATOM     18  C5  DW9 A2103      25.594   3.872   3.918  0.00  0.00    +0.000 C 
ATOM     19  C6  DW9 A2103      26.352   4.985   3.725  0.00  0.00    +0.000 C 
ATOM     20  C8  DW9 A2103      25.773   8.529   4.296  0.00  0.00    +0.000 C 
ATOM     21  N7  DW9 A2103      26.448   7.452   3.920  0.00  0.00    +0.000 NA
ATOM     22  N10 DW9 A2103      26.260   9.896   4.236  0.00  0.00    +0.000 NA
ATOM     23  O11 DW9 A2103      27.635   4.858   3.192  0.00  0.00    +0.000 OA
ATOM     24  S9  DW9 A2103      24.265   7.982   4.851  0.00  0.00    +0.000 S 
ENDBRANCH   1  17
TORSDOF 2
ENDMDL
MODEL 2
REMARK VINA RESULT:      -1.3      0.598      8.077
REMARK  Name = ligand_pdbs\DW9.pdb
REMARK  2 active torsions:
REMARK  status: ('A' for Active; 'I' for Inactive)
REMARK    1  A    between atoms: C4_4  and  S12_22
REMARK    2  A    between atoms: S12_22  and  S13_23
REMARK                            x       y       z     vdW  Elec       q    Type
REMARK                         _______ _______ _______ _____ _____    ______ ____
ROOT
ATOM      1  S12 DW9 A2103      24.267   0.736   4.294  0.00  0.00    +0.000 S 
ENDROOT
BRANCH   1  12
ATOM      2  C14 DW9 A2103      24.866   3.949   4.384  0.00  0.00    +0.000 C 
ATOM      3  C15 DW9 A2103      26.140   3.944   3.814  0.00  0.00    +0.000 C 
ATOM      4  C16 DW9 A2103      26.768   5.168   3.664  0.00  0.00    +0.000 C 
ATOM      5  C17 DW9 A2103      26.076   6.349   4.059  0.00  0.00    +0.000 C 
ATOM      6  C18 DW9 A2103      24.783   6.289   4.572  0.00  0.00    +0.000 C 
ATOM      7  C19 DW9 A2103      24.170   5.084   4.718  0.00  0.00    +0.000 C 
ATOM      8  C21 DW9 A2103      25.749   8.601   4.377  0.00  0.00    +0.000 C 
ATOM      9  N20 DW9 A2103      26.579   7.634   3.954  0.00  0.00    +0.000 NA
ATOM     10  N24 DW9 A2103      26.060  10.009   4.367  0.00  0.00    +0.000 NA
ATOM     11  O23 DW9 A2103      28.081   5.227   3.139  0.00  0.00    +0.000 OA
ATOM     12  S13 DW9 A2103      23.878   2.490   4.601  0.00  0.00    +0.000 S 
ATOM     13  S22 DW9 A2103      24.296   7.886   4.889  0.00  0.00    +0.000 S 
ENDBRANCH   1  12
BRANCH   1  17
ATOM     14  C1  DW9 A2103      28.540  -0.561   4.550  0.00  0.00    +0.000 C 
ATOM     15  C2  DW9 A2103      27.785  -1.243   3.594  0.00  0.00    +0.000 C 
ATOM     16  C3  DW9 A2103      26.431  -0.958   3.385  0.00  0.00    +0.000 C 
ATOM     17  C4  DW9 A2103      25.897   0.033   4.205  0.00  0.00    +0.000 C 
ATOM     18  C5  DW9 A2103      26.644   0.729   5.141  0.00  0.00    +0.000 C 
ATOM     19  C6  DW9 A2103      27.961   0.445   5.334  0.00  0.00    +0.000 C 
ATOM     20  C8  DW9 A2103      30.252  -1.930   3.808  0.00  0.00    +0.000 C 
ATOM     21  N7  DW9 A2103      29.872  -0.965   4.633  0.00  0.00    +0.000 NA
ATOM     22  N10 DW9 A2103      31.586  -2.497   3.727  0.00  0.00    +0.000 NA
ATOM     23  O11 DW9 A2103      28.679   1.147   6.302  0.00  0.00    +0.000 OA
ATOM     24  S9  DW9 A2103      28.884  -2.346   2.893  0.00  0.00    +0.000 S 
ENDBRANCH   1  17
TORSDOF 2
ENDMDL
MODEL 3
REMARK VINA RESULT:       0.3      2.402      8.346
REMARK  Name = ligand_pdbs\DW9.pdb
REMARK  2 active torsions:
REMARK  status: ('A' for Active; 'I' for Inactive)
REMARK    1  A    between atoms: C4_4  and  S12_22
REMARK    2  A    between atoms: S12_22  and  S13_23
REMARK                            x       y       z     vdW  Elec       q    Type
REMARK                         _______ _______ _______ _____ _____    ______ ____
ROOT
ATOM      1  S12 DW9 A2103      26.113   2.041   3.082  0.00  0.00    +0.000 S 
ENDROOT
BRANCH   1  12
ATOM      2  C14 DW9 A2103      25.414   4.971   4.354  0.00  0.00    +0.000 C 
ATOM      3  C15 DW9 A2103      26.695   5.333   4.772  0.00  0.00    +0.000 C 
ATOM      4  C16 DW9 A2103      26.834   6.565   5.385  0.00  0.00    +0.000 C 
ATOM      5  C17 DW9 A2103      25.686   7.399   5.517  0.00  0.00    +0.000 C 
ATOM      6  C18 DW9 A2103      24.445   7.002   5.028  0.00  0.00    +0.000 C 
ATOM      7  C19 DW9 A2103      24.314   5.789   4.428  0.00  0.00    +0.000 C 
ATOM      8  C21 DW9 A2103      24.491   9.272   6.105  0.00  0.00    +0.000 C 
ATOM      9  N20 DW9 A2103      25.684   8.657   6.097  0.00  0.00    +0.000 NA
ATOM     10  N24 DW9 A2103      24.249  10.581   6.659  0.00  0.00    +0.000 NA
ATOM     11  O23 DW9 A2103      28.097   6.970   5.877  0.00  0.00    +0.000 OA
ATOM     12  S13 DW9 A2103      25.047   3.461   3.494  0.00  0.00    +0.000 S 
ATOM     13  S22 DW9 A2103      23.354   8.265   5.344  0.00  0.00    +0.000 S 
ENDBRANCH   1  12
BRANCH   1  17
ATOM     14  C1  DW9 A2103      29.624   0.179   5.134  0.00  0.00    +0.000 C 
ATOM     15  C2  DW9 A2103      29.576   1.572   5.219  0.00  0.00    +0.000 C 
ATOM     16  C3  DW9 A2103      28.543   2.310   4.633  0.00  0.00    +0.000 C 
ATOM     17  C4  DW9 A2103      27.587   1.560   3.951  0.00  0.00    +0.000 C 
ATOM     18  C5  DW9 A2103      27.616   0.177   3.879  0.00  0.00    +0.000 C 
ATOM     19  C6  DW9 A2103      28.625  -0.531   4.456  0.00  0.00    +0.000 C 
ATOM     20  C8  DW9 A2103      31.566   0.423   6.369  0.00  0.00    +0.000 C 
ATOM     21  N7  DW9 A2103      30.719  -0.403   5.771  0.00  0.00    +0.000 NA
ATOM     22  N10 DW9 A2103      32.764   0.030   7.090  0.00  0.00    +0.000 NA
ATOM     23  O11 DW9 A2103      28.638  -1.921   4.345  0.00  0.00    +0.000 OA
ATOM     24  S9  DW9 A2103      30.964   1.990   6.123  0.00  0.00    +0.000 S 
ENDBRANCH   1  17
TORSDOF 2
ENDMDL
