MODEL 1
REMARK VINA RESULT:      -2.2      0.000      0.000
REMARK  Name = ligand_pdbs\EDO.pdb
REMARK  1 active torsions:
REMARK  status: ('A' for Active; 'I' for Inactive)
REMARK    1  A    between atoms: C1_1  and  C2_3
REMARK                            x       y       z     vdW  Elec       q    Type
REMARK                         _______ _______ _______ _____ _____    ______ ____
ROOT
ATOM      1  C1  EDO A 301      24.520   6.440   4.312  0.00  0.00    +0.000 C 
ATOM      2  O1  EDO A 301      25.160   7.312   5.236  0.00  0.00    +0.000 OA
ENDROOT
BRANCH   1   3
ATOM      3  C2  EDO A 301      24.245   5.098   4.975  0.00  0.00    +0.000 C 
ATOM      4  O2  EDO A 301      23.073   4.516   4.417  0.00  0.00    +0.000 OA
ENDBRANCH   1   3
TORSDOF 1
ENDMDL
MODEL 2
REMARK VINA RESULT:      -2.2      0.121      2.766
REMARK  Name = ligand_pdbs\EDO.pdb
REMARK  1 active torsions:
REMARK  status: ('A' for Active; 'I' for Inactive)
REMARK    1  A    between atoms: C1_1  and  C2_3
REMARK                            x       y       z     vdW  Elec       q    Type
REMARK                         _______ _______ _______ _____ _____    ______ ____
ROOT
ATOM      1  C1  EDO A 301      24.224   5.055   4.981  0.00  0.00    +0.000 C 
ATOM      2  O1  EDO A 301      23.057   4.486   4.399  0.00  0.00    +0.000 OA
ENDROOT
BRANCH   1   3
ATOM      3  C2  EDO A 301      24.509   6.409   4.348  0.00  0.00    +0.000 C 
ATOM      4  O2  EDO A 301      25.343   7.177   5.206  0.00  0.00    +0.000 OA
ENDBRANCH   1   3
TORSDOF 1
ENDMDL
MODEL 3
REMARK VINA RESULT:      -2.1      1.676      2.995
REMARK  Name = ligand_pdbs\EDO.pdb
REMARK  1 active torsions:
REMARK  status: ('A' for Active; 'I' for Inactive)
REMARK    1  A    between atoms: C1_1  and  C2_3
REMARK                            x       y       z     vdW  Elec       q    Type
REMARK                         _______ _______ _______ _____ _____    ______ ____
ROOT
ATOM      1  C1  EDO A 301      24.855   6.810   4.327  0.00  0.00    +0.000 C 
ATOM      2  O1  EDO A 301      24.454   5.639   5.030  0.00  0.00    +0.000 OA
ENDROOT
BRANCH   1   3
ATOM      3  C2  EDO A 301      25.788   7.640   5.197  0.00  0.00    +0.000 C 
ATOM      4  O2  EDO A 301      27.100   7.093   5.155  0.00  0.00    +0.000 OA
ENDBRANCH   1   3
TORSDOF 1
ENDMDL
MODEL 4
REMARK VINA RESULT:      -2.1      1.806      2.119
REMARK  Name = ligand_pdbs\EDO.pdb
REMARK  1 active torsions:
REMARK  status: ('A' for Active; 'I' for Inactive)
REMARK    1  A    between atoms: C1_1  and  C2_3
REMARK                            x       y       z     vdW  Elec       q    Type
REMARK                         _______ _______ _______ _____ _____    ______ ____
ROOT
ATOM      1  C1  EDO A 301      26.067   7.444   5.180  0.00  0.00    +0.000 C 
ATOM      2  O1  EDO A 301      27.364   6.858   5.196  0.00  0.00    +0.000 OA
ENDROOT
BRANCH   1   3
ATOM      3  C2  EDO A 301      25.258   6.873   4.025  0.00  0.00    +0.000 C 
ATOM      4  O2  EDO A 301      24.219   6.042   4.528  0.00  0.00    +0.000 OA
ENDBRANCH   1   3
TORSDOF 1
ENDMDL
MODEL 5
REMARK VINA RESULT:      -2.0      1.536      1.739
REMARK  Name = ligand_pdbs\EDO.pdb
REMARK  1 active torsions:
REMARK  status: ('A' for Active; 'I' for Inactive)
REMARK    1  A    between atoms: C1_1  and  C2_3
REMARK                            x       y       z     vdW  Elec       q    Type
REMARK                         _______ _______ _______ _____ _____    ______ ____
ROOT
ATOM      1  C1  EDO A 301      25.284   4.437   4.596  0.00  0.00    +0.000 C 
ATOM      2  O1  EDO A 301      26.122   4.856   5.668  0.00  0.00    +0.000 OA
ENDROOT
BRANCH   1   3
ATOM      3  C2  EDO A 301      23.959   5.184   4.654  0.00  0.00    +0.000 C 
ATOM      4  O2  EDO A 301      22.890   4.291   4.366  0.00  0.00    +0.000 OA
ENDBRANCH   1   3
TORSDOF 1
ENDMDL
MODEL 6
REMARK VINA RESULT:      -1.9      3.381      3.558
REMARK  Name = ligand_pdbs\EDO.pdb
REMARK  1 active torsions:
REMARK  status: ('A' for Active; 'I' for Inactive)
REMARK    1  A    between atoms: C1_1  and  C2_3
REMARK                            x       y       z     vdW  Elec       q    Type
REMARK                         _______ _______ _______ _____ _____    ______ ____
ROOT
ATOM      1  C1  EDO A 301      26.782   6.107   4.563  0.00  0.00    +0.000 C 
ATOM      2  O1  EDO A 301      27.623   6.977   5.312  0.00  0.00    +0.000 OA
ENDROOT
BRANCH   1   3
ATOM      3  C2  EDO A 301      27.620   5.023   3.901  0.00  0.00    +0.000 C 
ATOM      4  O2  EDO A 301      28.199   4.187   4.895  0.00  0.00    +0.000 OA
ENDBRANCH   1   3
TORSDOF 1
ENDMDL
MODEL 7
REMARK VINA RESULT:      -1.9      3.242      4.100
REMARK  Name = ligand_pdbs\EDO.pdb
REMARK  1 active torsions:
REMARK  status: ('A' for Active; 'I' for Inactive)
REMARK    1  A    between atoms: C1_1  and  C2_3
REMARK                            x       y       z     vdW  Elec       q    Type
REMARK                         _______ _______ _______ _____ _____    ______ ____
ROOT
ATOM      1  C1  EDO A 301      27.679   4.480   5.537  0.00  0.00    +0.000 C 
ATOM      2  O1  EDO A 301      26.433   3.862   5.837  0.00  0.00    +0.000 OA
ENDROOT
BRANCH   1   3
ATOM      3  C2  EDO A 301      27.464   5.631   4.565  0.00  0.00    +0.000 C 
ATOM      4  O2  EDO A 301      27.655   6.871   5.236  0.00  0.00    +0.000 OA
ENDBRANCH   1   3
TORSDOF 1
ENDMDL
MODEL 8
REMARK VINA RESULT:      -1.9      3.863      4.579
REMARK  Name = ligand_pdbs\EDO.pdb
REMARK  1 active torsions:
REMARK  status: ('A' for Active; 'I' for Inactive)
REMARK    1  A    between atoms: C1_1  and  C2_3
REMARK                            x       y       z     vdW  Elec       q    Type
REMARK                         _______ _______ _______ _____ _____    ______ ____
ROOT
ATOM      1  C1  EDO A 301      27.829   3.949   4.692  0.00  0.00    +0.000 C 
ATOM      2  O1  EDO A 301      27.981   2.957   3.683  0.00  0.00    +0.000 OA
ENDROOT
BRANCH   1   3
ATOM      3  C2  EDO A 301      27.646   5.316   4.049  0.00  0.00    +0.000 C 
ATOM      4  O2  EDO A 301      27.663   6.326   5.050  0.00  0.00    +0.000 OA
ENDBRANCH   1   3
TORSDOF 1
ENDMDL
MODEL 9
REMARK VINA RESULT:      -1.9      6.916      7.131
REMARK  Name = ligand_pdbs\EDO.pdb
REMARK  1 active torsions:
REMARK  status: ('A' for Active; 'I' for Inactive)
REMARK    1  A    between atoms: C1_1  and  C2_3
REMARK                            x       y       z     vdW  Elec       q    Type
REMARK                         _______ _______ _______ _____ _____    ______ ____
ROOT
ATOM      1  C1  EDO A 301      29.596   1.956   5.303  0.00  0.00    +0.000 C 
ATOM      2  O1  EDO A 301      29.574   1.405   3.991  0.00  0.00    +0.000 OA
ENDROOT
BRANCH   1   3
ATOM      3  C2  EDO A 301      28.647   1.180   6.205  0.00  0.00    +0.000 C 
ATOM      4  O2  EDO A 301      29.316   0.049   6.748  0.00  0.00    +0.000 OA
ENDBRANCH   1   3
TORSDOF 1
ENDMDL
