MODEL 1
REMARK VINA RESULT:      -5.2      0.000      0.000
REMARK  Name = ligand_pdbs\ENM.pdb
REMARK  5 active torsions:
REMARK  status: ('A' for Active; 'I' for Inactive)
REMARK    1  A    between atoms: C22_8  and  C21_9
REMARK    2  A    between atoms: C21_9  and  O03_10
REMARK    3  A    between atoms: O03_10  and  C20_11
REMARK    4  A    between atoms: C20_11  and  C19_12
REMARK    5  A    between atoms: C19_12  and  C12_13
REMARK                            x       y       z     vdW  Elec       q    Type
REMARK                         _______ _______ _______ _____ _____    ______ ____
ROOT
ATOM      1  C12 ENM A 302      29.388   1.899   5.929  0.00  0.00    +0.000 C 
ATOM      2  C13 ENM A 302      29.644   3.143   6.812  0.00  0.00    +0.000 C 
ATOM      3  C14 ENM A 302      28.401   4.088   6.758  0.00  0.00    +0.000 C 
ATOM      4  C10 ENM A 302      28.066   4.506   5.289  0.00  0.00    +0.000 C 
ATOM      5  C05 ENM A 302      26.855   5.491   5.183  0.00  0.00    +0.000 C 
ATOM      6  C18 ENM A 302      25.566   4.817   5.729  0.00  0.00    +0.000 C 
ATOM      7  C06 ENM A 302      27.167   6.774   6.011  0.00  0.00    +0.000 C 
ATOM      8  C01 ENM A 302      26.074   7.862   5.865  0.00  0.00    +0.000 C 
ATOM      9  C02 ENM A 302      25.775   8.133   4.385  0.00  0.00    +0.000 C 
ATOM     10  O02 ENM A 302      25.715   9.288   3.960  0.00  0.00    +0.000 OA
ATOM     11  C03 ENM A 302      25.572   6.938   3.443  0.00  0.00    +0.000 C 
ATOM     12  C04 ENM A 302      26.682   5.888   3.674  0.00  0.00    +0.000 C 
ATOM     13  C07 ENM A 302      26.450   4.649   2.781  0.00  0.00    +0.000 C 
ATOM     14  C08 ENM A 302      27.642   3.681   2.897  0.00  0.00    +0.000 C 
ATOM     15  C09 ENM A 302      27.874   3.247   4.369  0.00  0.00    +0.000 C 
ATOM     16  C11 ENM A 302      29.139   2.374   4.494  0.00  0.00    +0.000 C 
ATOM     17  C15 ENM A 302      29.203   1.100   3.651  0.00  0.00    +0.000 C 
ATOM     18  C16 ENM A 302      30.348   0.298   4.324  0.00  0.00    +0.000 C 
ATOM     19  C17 ENM A 302      30.611   1.010   5.680  0.00  0.00    +0.000 C 
ATOM     20  O01 ENM A 302      30.839   0.067   6.735  0.00  0.00    +0.000 OA
ENDROOT
BRANCH   1  21
ATOM     21  C19 ENM A 302      28.178   1.035   6.436  0.00  0.00    +0.000 C 
BRANCH  21  22
ATOM     22  C20 ENM A 302      28.414  -0.481   6.297  0.00  0.00    +0.000 C 
BRANCH  22  23
ATOM     23  O03 ENM A 302      27.132  -1.059   6.039  0.00  0.00    +0.000 OA
BRANCH  23  24
ATOM     24  C21 ENM A 302      26.856  -1.176   4.635  0.00  0.00    +0.000 C 
BRANCH  24  32
ATOM     25  C23 ENM A 302      26.180   0.030   2.628  0.00  0.00    +0.000 A 
ATOM     26  C24 ENM A 302      25.374   1.022   2.025  0.00  0.00    +0.000 A 
ATOM     27  F2  ENM A 302      25.363   1.173   0.675  0.00  0.00    +0.000 F 
ATOM     28  C25 ENM A 302      24.546   1.833   2.815  0.00  0.00    +0.000 A 
ATOM     29  C26 ENM A 302      24.517   1.657   4.206  0.00  0.00    +0.000 A 
ATOM     30  F1  ENM A 302      23.690   2.410   4.961  0.00  0.00    +0.000 F 
ATOM     31  C27 ENM A 302      25.316   0.674   4.810  0.00  0.00    +0.000 A 
ATOM     32  C22 ENM A 302      26.145  -0.145   4.025  0.00  0.00    +0.000 A 
ENDBRANCH  24  32
ENDBRANCH  23  24
ENDBRANCH  22  23
ENDBRANCH  21  22
ENDBRANCH   1  21
TORSDOF 5
ENDMDL
MODEL 2
REMARK VINA RESULT:      -4.7      1.762      5.956
REMARK  Name = ligand_pdbs\ENM.pdb
REMARK  5 active torsions:
REMARK  status: ('A' for Active; 'I' for Inactive)
REMARK    1  A    between atoms: C22_8  and  C21_9
REMARK    2  A    between atoms: C21_9  and  O03_10
REMARK    3  A    between atoms: O03_10  and  C20_11
REMARK    4  A    between atoms: C20_11  and  C19_12
REMARK    5  A    between atoms: C19_12  and  C12_13
REMARK                            x       y       z     vdW  Elec       q    Type
REMARK                         _______ _______ _______ _____ _____    ______ ____
ROOT
ATOM      1  C12 ENM A 302      26.065   5.573   4.032  0.00  0.00    +0.000 C 
ATOM      2  C13 ENM A 302      26.670   4.607   2.987  0.00  0.00    +0.000 C 
ATOM      3  C14 ENM A 302      27.178   3.314   3.704  0.00  0.00    +0.000 C 
ATOM      4  C10 ENM A 302      28.218   3.651   4.822  0.00  0.00    +0.000 C 
ATOM      5  C05 ENM A 302      28.793   2.387   5.540  0.00  0.00    +0.000 C 
ATOM      6  C18 ENM A 302      27.652   1.609   6.253  0.00  0.00    +0.000 C 
ATOM      7  C06 ENM A 302      29.474   1.465   4.483  0.00  0.00    +0.000 C 
ATOM      8  C01 ENM A 302      30.181   0.243   5.120  0.00  0.00    +0.000 C 
ATOM      9  C02 ENM A 302      31.116   0.690   6.252  0.00  0.00    +0.000 C 
ATOM     10  O02 ENM A 302      32.268   0.259   6.319  0.00  0.00    +0.000 OA
ATOM     11  C03 ENM A 302      30.593   1.696   7.287  0.00  0.00    +0.000 C 
ATOM     12  C04 ENM A 302      29.875   2.863   6.573  0.00  0.00    +0.000 C 
ATOM     13  C07 ENM A 302      29.283   3.848   7.605  0.00  0.00    +0.000 C 
ATOM     14  C08 ENM A 302      28.712   5.086   6.890  0.00  0.00    +0.000 C 
ATOM     15  C09 ENM A 302      27.633   4.689   5.848  0.00  0.00    +0.000 C 
ATOM     16  C11 ENM A 302      27.152   5.919   5.052  0.00  0.00    +0.000 C 
ATOM     17  C15 ENM A 302      26.575   7.091   5.848  0.00  0.00    +0.000 C 
ATOM     18  C16 ENM A 302      25.834   7.913   4.762  0.00  0.00    +0.000 C 
ATOM     19  C17 ENM A 302      25.758   6.984   3.518  0.00  0.00    +0.000 C 
ATOM     20  O01 ENM A 302      24.484   7.077   2.868  0.00  0.00    +0.000 OA
ENDROOT
BRANCH   1  21
ATOM     21  C19 ENM A 302      24.807   4.971   4.756  0.00  0.00    +0.000 C 
BRANCH  21  22
ATOM     22  C20 ENM A 302      24.122   3.850   3.951  0.00  0.00    +0.000 C 
BRANCH  22  23
ATOM     23  O03 ENM A 302      24.459   2.626   4.610  0.00  0.00    +0.000 OA
BRANCH  23  24
ATOM     24  C21 ENM A 302      24.373   1.492   3.736  0.00  0.00    +0.000 C 
BRANCH  24  32
ATOM     25  C23 ENM A 302      25.658  -0.256   4.848  0.00  0.00    +0.000 A 
ATOM     26  C24 ENM A 302      26.678  -1.232   4.789  0.00  0.00    +0.000 A 
ATOM     27  F2  ENM A 302      26.879  -2.081   5.830  0.00  0.00    +0.000 F 
ATOM     28  C25 ENM A 302      27.465  -1.359   3.636  0.00  0.00    +0.000 A 
ATOM     29  C26 ENM A 302      27.238  -0.517   2.537  0.00  0.00    +0.000 A 
ATOM     30  F1  ENM A 302      27.970  -0.668   1.413  0.00  0.00    +0.000 F 
ATOM     31  C27 ENM A 302      26.228   0.455   2.591  0.00  0.00    +0.000 A 
ATOM     32  C22 ENM A 302      25.432   0.586   3.741  0.00  0.00    +0.000 A 
ENDBRANCH  24  32
ENDBRANCH  23  24
ENDBRANCH  22  23
ENDBRANCH  21  22
ENDBRANCH   1  21
TORSDOF 5
ENDMDL
MODEL 3
REMARK VINA RESULT:      -4.4      2.388      4.568
REMARK  Name = ligand_pdbs\ENM.pdb
REMARK  5 active torsions:
REMARK  status: ('A' for Active; 'I' for Inactive)
REMARK    1  A    between atoms: C22_8  and  C21_9
REMARK    2  A    between atoms: C21_9  and  O03_10
REMARK    3  A    between atoms: O03_10  and  C20_11
REMARK    4  A    between atoms: C20_11  and  C19_12
REMARK    5  A    between atoms: C19_12  and  C12_13
REMARK                            x       y       z     vdW  Elec       q    Type
REMARK                         _______ _______ _______ _____ _____    ______ ____
ROOT
ATOM      1  C12 ENM A 302      26.148   0.351   3.750  0.00  0.00    +0.000 C 
ATOM      2  C13 ENM A 302      25.023   1.149   3.051  0.00  0.00    +0.000 C 
ATOM      3  C14 ENM A 302      25.461   2.641   2.890  0.00  0.00    +0.000 C 
ATOM      4  C10 ENM A 302      25.825   3.281   4.270  0.00  0.00    +0.000 C 
ATOM      5  C05 ENM A 302      26.228   4.789   4.169  0.00  0.00    +0.000 C 
ATOM      6  C18 ENM A 302      27.497   4.949   3.288  0.00  0.00    +0.000 C 
ATOM      7  C06 ENM A 302      25.048   5.590   3.540  0.00  0.00    +0.000 C 
ATOM      8  C01 ENM A 302      25.308   7.117   3.514  0.00  0.00    +0.000 C 
ATOM      9  C02 ENM A 302      25.732   7.617   4.902  0.00  0.00    +0.000 C 
ATOM     10  O02 ENM A 302      25.211   8.621   5.391  0.00  0.00    +0.000 OA
ATOM     11  C03 ENM A 302      26.802   6.833   5.673  0.00  0.00    +0.000 C 
ATOM     12  C04 ENM A 302      26.487   5.320   5.624  0.00  0.00    +0.000 C 
ATOM     13  C07 ENM A 302      27.593   4.513   6.337  0.00  0.00    +0.000 C 
ATOM     14  C08 ENM A 302      27.194   3.029   6.424  0.00  0.00    +0.000 C 
ATOM     15  C09 ENM A 302      26.919   2.435   5.018  0.00  0.00    +0.000 C 
ATOM     16  C11 ENM A 302      26.405   0.985   5.120  0.00  0.00    +0.000 C 
ATOM     17  C15 ENM A 302      27.289  -0.026   5.852  0.00  0.00    +0.000 C 
ATOM     18  C16 ENM A 302      26.700  -1.389   5.402  0.00  0.00    +0.000 C 
ATOM     19  C17 ENM A 302      25.764  -1.061   4.204  0.00  0.00    +0.000 C 
ATOM     20  O01 ENM A 302      25.885  -2.035   3.160  0.00  0.00    +0.000 OA
ENDROOT
BRANCH   1  21
ATOM     21  C19 ENM A 302      27.475   0.313   2.909  0.00  0.00    +0.000 C 
BRANCH  21  22
ATOM     22  C20 ENM A 302      27.855  -1.104   2.439  0.00  0.00    +0.000 C 
BRANCH  22  23
ATOM     23  O03 ENM A 302      29.085  -1.423   3.098  0.00  0.00    +0.000 OA
BRANCH  23  24
ATOM     24  C21 ENM A 302      29.958  -0.289   3.205  0.00  0.00    +0.000 C 
BRANCH  24  32
ATOM     25  C23 ENM A 302      30.088  -0.451   5.634  0.00  0.00    +0.000 A 
ATOM     26  C24 ENM A 302      30.315   0.178   6.879  0.00  0.00    +0.000 A 
ATOM     27  F2  ENM A 302      30.365  -0.555   8.021  0.00  0.00    +0.000 F 
ATOM     28  C25 ENM A 302      30.531   1.562   6.939  0.00  0.00    +0.000 A 
ATOM     29  C26 ENM A 302      30.525   2.323   5.761  0.00  0.00    +0.000 A 
ATOM     30  F1  ENM A 302      30.774   3.649   5.817  0.00  0.00    +0.000 F 
ATOM     31  C27 ENM A 302      30.299   1.704   4.523  0.00  0.00    +0.000 A 
ATOM     32  C22 ENM A 302      30.085   0.317   4.453  0.00  0.00    +0.000 A 
ENDBRANCH  24  32
ENDBRANCH  23  24
ENDBRANCH  22  23
ENDBRANCH  21  22
ENDBRANCH   1  21
TORSDOF 5
ENDMDL
MODEL 4
REMARK VINA RESULT:      -4.2      2.311      5.984
REMARK  Name = ligand_pdbs\ENM.pdb
REMARK  5 active torsions:
REMARK  status: ('A' for Active; 'I' for Inactive)
REMARK    1  A    between atoms: C22_8  and  C21_9
REMARK    2  A    between atoms: C21_9  and  O03_10
REMARK    3  A    between atoms: O03_10  and  C20_11
REMARK    4  A    between atoms: C20_11  and  C19_12
REMARK    5  A    between atoms: C19_12  and  C12_13
REMARK                            x       y       z     vdW  Elec       q    Type
REMARK                         _______ _______ _______ _____ _____    ______ ____
ROOT
ATOM      1  C12 ENM A 302      26.034   4.889   4.542  0.00  0.00    +0.000 C 
ATOM      2  C13 ENM A 302      27.380   5.577   4.873  0.00  0.00    +0.000 C 
ATOM      3  C14 ENM A 302      28.545   4.546   4.727  0.00  0.00    +0.000 C 
ATOM      4  C10 ENM A 302      28.318   3.296   5.640  0.00  0.00    +0.000 C 
ATOM      5  C05 ENM A 302      29.480   2.252   5.566  0.00  0.00    +0.000 C 
ATOM      6  C18 ENM A 302      29.611   1.695   4.121  0.00  0.00    +0.000 C 
ATOM      7  C06 ENM A 302      30.813   2.943   5.984  0.00  0.00    +0.000 C 
ATOM      8  C01 ENM A 302      32.003   1.954   6.060  0.00  0.00    +0.000 C 
ATOM      9  C02 ENM A 302      31.637   0.734   6.916  0.00  0.00    +0.000 C 
ATOM     10  O02 ENM A 302      32.408   0.328   7.787  0.00  0.00    +0.000 OA
ATOM     11  C03 ENM A 302      30.287   0.043   6.677  0.00  0.00    +0.000 C 
ATOM     12  C04 ENM A 302      29.163   1.099   6.582  0.00  0.00    +0.000 C 
ATOM     13  C07 ENM A 302      27.809   0.422   6.273  0.00  0.00    +0.000 C 
ATOM     14  C08 ENM A 302      26.672   1.457   6.340  0.00  0.00    +0.000 C 
ATOM     15  C09 ENM A 302      26.921   2.633   5.358  0.00  0.00    +0.000 C 
ATOM     16  C11 ENM A 302      25.841   3.723   5.515  0.00  0.00    +0.000 C 
ATOM     17  C15 ENM A 302      24.383   3.302   5.327  0.00  0.00    +0.000 C 
ATOM     18  C16 ENM A 302      23.655   4.659   5.132  0.00  0.00    +0.000 C 
ATOM     19  C17 ENM A 302      24.782   5.702   4.887  0.00  0.00    +0.000 C 
ATOM     20  O01 ENM A 302      24.421   6.634   3.859  0.00  0.00    +0.000 OA
ENDROOT
BRANCH   1  21
ATOM     21  C19 ENM A 302      25.964   4.380   3.057  0.00  0.00    +0.000 C 
BRANCH  21  22
ATOM     22  C20 ENM A 302      25.404   2.950   2.932  0.00  0.00    +0.000 C 
BRANCH  22  23
ATOM     23  O03 ENM A 302      26.512   2.121   2.568  0.00  0.00    +0.000 OA
BRANCH  23  24
ATOM     24  C21 ENM A 302      26.122   0.761   2.329  0.00  0.00    +0.000 C 
BRANCH  24  32
ATOM     25  C23 ENM A 302      26.265  -1.277   3.659  0.00  0.00    +0.000 A 
ATOM     26  C24 ENM A 302      27.047  -2.338   4.168  0.00  0.00    +0.000 A 
ATOM     27  F2  ENM A 302      26.462  -3.363   4.840  0.00  0.00    +0.000 F 
ATOM     28  C25 ENM A 302      28.432  -2.361   3.948  0.00  0.00    +0.000 A 
ATOM     29  C26 ENM A 302      29.041  -1.330   3.218  0.00  0.00    +0.000 A 
ATOM     30  F1  ENM A 302      30.368  -1.375   2.972  0.00  0.00    +0.000 F 
ATOM     31  C27 ENM A 302      28.270  -0.274   2.710  0.00  0.00    +0.000 A 
ATOM     32  C22 ENM A 302      26.881  -0.246   2.923  0.00  0.00    +0.000 A 
ENDBRANCH  24  32
ENDBRANCH  23  24
ENDBRANCH  22  23
ENDBRANCH  21  22
ENDBRANCH   1  21
TORSDOF 5
ENDMDL
MODEL 5
REMARK VINA RESULT:      -3.3      2.407      4.418
REMARK  Name = ligand_pdbs\ENM.pdb
REMARK  5 active torsions:
REMARK  status: ('A' for Active; 'I' for Inactive)
REMARK    1  A    between atoms: C22_8  and  C21_9
REMARK    2  A    between atoms: C21_9  and  O03_10
REMARK    3  A    between atoms: O03_10  and  C20_11
REMARK    4  A    between atoms: C20_11  and  C19_12
REMARK    5  A    between atoms: C19_12  and  C12_13
REMARK                            x       y       z     vdW  Elec       q    Type
REMARK                         _______ _______ _______ _____ _____    ______ ____
ROOT
ATOM      1  C12 ENM A 302      26.776   0.938   3.485  0.00  0.00    +0.000 C 
ATOM      2  C13 ENM A 302      27.946   1.912   3.209  0.00  0.00    +0.000 C 
ATOM      3  C14 ENM A 302      27.813   3.165   4.133  0.00  0.00    +0.000 C 
ATOM      4  C10 ENM A 302      26.435   3.877   3.934  0.00  0.00    +0.000 C 
ATOM      5  C05 ENM A 302      26.269   5.167   4.803  0.00  0.00    +0.000 C 
ATOM      6  C18 ENM A 302      26.338   4.808   6.314  0.00  0.00    +0.000 C 
ATOM      7  C06 ENM A 302      27.408   6.170   4.450  0.00  0.00    +0.000 C 
ATOM      8  C01 ENM A 302      27.255   7.530   5.175  0.00  0.00    +0.000 C 
ATOM      9  C02 ENM A 302      25.842   8.094   4.973  0.00  0.00    +0.000 C 
ATOM     10  O02 ENM A 302      25.680   9.270   4.642  0.00  0.00    +0.000 OA
ATOM     11  C03 ENM A 302      24.640   7.161   5.172  0.00  0.00    +0.000 C 
ATOM     12  C04 ENM A 302      24.886   5.819   4.447  0.00  0.00    +0.000 C 
ATOM     13  C07 ENM A 302      23.714   4.845   4.696  0.00  0.00    +0.000 C 
ATOM     14  C08 ENM A 302      23.890   3.575   3.843  0.00  0.00    +0.000 C 
ATOM     15  C09 ENM A 302      25.242   2.876   4.143  0.00  0.00    +0.000 C 
ATOM     16  C11 ENM A 302      25.464   1.674   3.203  0.00  0.00    +0.000 C 
ATOM     17  C15 ENM A 302      24.399   0.576   3.199  0.00  0.00    +0.000 C 
ATOM     18  C16 ENM A 302      25.127  -0.607   2.509  0.00  0.00    +0.000 C 
ATOM     19  C17 ENM A 302      26.630  -0.211   2.482  0.00  0.00    +0.000 C 
ATOM     20  O01 ENM A 302      27.475  -1.328   2.786  0.00  0.00    +0.000 OA
ENDROOT
BRANCH   1  21
ATOM     21  C19 ENM A 302      26.785   0.382   4.955  0.00  0.00    +0.000 C 
BRANCH  21  22
ATOM     22  C20 ENM A 302      26.841  -1.155   5.022  0.00  0.00    +0.000 C 
BRANCH  22  23
ATOM     23  O03 ENM A 302      28.113  -1.482   5.589  0.00  0.00    +0.000 OA
BRANCH  23  24
ATOM     24  C21 ENM A 302      28.410  -0.700   6.755  0.00  0.00    +0.000 C 
BRANCH  24  32
ATOM     25  C23 ENM A 302      28.907   1.685   6.657  0.00  0.00    +0.000 A 
ATOM     26  C24 ENM A 302      29.868   2.720   6.619  0.00  0.00    +0.000 A 
ATOM     27  F2  ENM A 302      29.481   4.020   6.696  0.00  0.00    +0.000 F 
ATOM     28  C25 ENM A 302      31.234   2.412   6.544  0.00  0.00    +0.000 A 
ATOM     29  C26 ENM A 302      31.647   1.072   6.509  0.00  0.00    +0.000 A 
ATOM     30  F1  ENM A 302      32.964   0.776   6.477  0.00  0.00    +0.000 F 
ATOM     31  C27 ENM A 302      30.698   0.039   6.545  0.00  0.00    +0.000 A 
ATOM     32  C22 ENM A 302      29.328   0.340   6.624  0.00  0.00    +0.000 A 
ENDBRANCH  24  32
ENDBRANCH  23  24
ENDBRANCH  22  23
ENDBRANCH  21  22
ENDBRANCH   1  21
TORSDOF 5
ENDMDL
MODEL 6
REMARK VINA RESULT:      -2.8      1.763      2.614
REMARK  Name = ligand_pdbs\ENM.pdb
REMARK  5 active torsions:
REMARK  status: ('A' for Active; 'I' for Inactive)
REMARK    1  A    between atoms: C22_8  and  C21_9
REMARK    2  A    between atoms: C21_9  and  O03_10
REMARK    3  A    between atoms: O03_10  and  C20_11
REMARK    4  A    between atoms: C20_11  and  C19_12
REMARK    5  A    between atoms: C19_12  and  C12_13
REMARK                            x       y       z     vdW  Elec       q    Type
REMARK                         _______ _______ _______ _____ _____    ______ ____
ROOT
ATOM      1  C12 ENM A 302      28.949   2.179   6.111  0.00  0.00    +0.000 C 
ATOM      2  C13 ENM A 302      29.035   3.374   7.090  0.00  0.00    +0.000 C 
ATOM      3  C14 ENM A 302      27.811   4.321   6.868  0.00  0.00    +0.000 C 
ATOM      4  C10 ENM A 302      27.735   4.817   5.387  0.00  0.00    +0.000 C 
ATOM      5  C05 ENM A 302      26.553   5.807   5.122  0.00  0.00    +0.000 C 
ATOM      6  C18 ENM A 302      25.194   5.105   5.397  0.00  0.00    +0.000 C 
ATOM      7  C06 ENM A 302      26.704   7.044   6.059  0.00  0.00    +0.000 C 
ATOM      8  C01 ENM A 302      25.643   8.138   5.781  0.00  0.00    +0.000 C 
ATOM      9  C02 ENM A 302      25.606   8.488   4.287  0.00  0.00    +0.000 C 
ATOM     10  O02 ENM A 302      25.611   9.664   3.919  0.00  0.00    +0.000 OA
ATOM     11  C03 ENM A 302      25.581   7.345   3.262  0.00  0.00    +0.000 C 
ATOM     12  C04 ENM A 302      26.643   6.283   3.629  0.00  0.00    +0.000 C 
ATOM     13  C07 ENM A 302      26.582   5.094   2.646  0.00  0.00    +0.000 C 
ATOM     14  C08 ENM A 302      27.744   4.121   2.918  0.00  0.00    +0.000 C 
ATOM     15  C09 ENM A 302      27.719   3.608   4.383  0.00  0.00    +0.000 C 
ATOM     16  C11 ENM A 302      28.950   2.730   4.682  0.00  0.00    +0.000 C 
ATOM     17  C15 ENM A 302      29.172   1.502   3.797  0.00  0.00    +0.000 C 
ATOM     18  C16 ENM A 302      30.189   0.665   4.617  0.00  0.00    +0.000 C 
ATOM     19  C17 ENM A 302      30.204   1.304   6.034  0.00  0.00    +0.000 C 
ATOM     20  O01 ENM A 302      30.252   0.306   7.061  0.00  0.00    +0.000 OA
ENDROOT
BRANCH   1  21
ATOM     21  C19 ENM A 302      27.676   1.290   6.352  0.00  0.00    +0.000 C 
BRANCH  21  22
ATOM     22  C20 ENM A 302      26.381   1.922   5.809  0.00  0.00    +0.000 C 
BRANCH  22  23
ATOM     23  O03 ENM A 302      25.674   0.870   5.145  0.00  0.00    +0.000 OA
BRANCH  23  24
ATOM     24  C21 ENM A 302      26.267  -0.417   5.375  0.00  0.00    +0.000 C 
BRANCH  24  32
ATOM     25  C23 ENM A 302      28.055  -1.922   4.682  0.00  0.00    +0.000 A 
ATOM     26  C24 ENM A 302      28.814  -2.503   3.641  0.00  0.00    +0.000 A 
ATOM     27  F2  ENM A 302      29.712  -3.485   3.910  0.00  0.00    +0.000 F 
ATOM     28  C25 ENM A 302      28.613  -2.098   2.313  0.00  0.00    +0.000 A 
ATOM     29  C26 ENM A 302      27.656  -1.116   2.019  0.00  0.00    +0.000 A 
ATOM     30  F1  ENM A 302      27.436  -0.756   0.737  0.00  0.00    +0.000 F 
ATOM     31  C27 ENM A 302      26.901  -0.535   3.049  0.00  0.00    +0.000 A 
ATOM     32  C22 ENM A 302      27.093  -0.938   4.381  0.00  0.00    +0.000 A 
ENDBRANCH  24  32
ENDBRANCH  23  24
ENDBRANCH  22  23
ENDBRANCH  21  22
ENDBRANCH   1  21
TORSDOF 5
ENDMDL
MODEL 7
REMARK VINA RESULT:      -2.6      2.635      6.693
REMARK  Name = ligand_pdbs\ENM.pdb
REMARK  5 active torsions:
REMARK  status: ('A' for Active; 'I' for Inactive)
REMARK    1  A    between atoms: C22_8  and  C21_9
REMARK    2  A    between atoms: C21_9  and  O03_10
REMARK    3  A    between atoms: O03_10  and  C20_11
REMARK    4  A    between atoms: C20_11  and  C19_12
REMARK    5  A    between atoms: C19_12  and  C12_13
REMARK                            x       y       z     vdW  Elec       q    Type
REMARK                         _______ _______ _______ _____ _____    ______ ____
ROOT
ATOM      1  C12 ENM A 302      24.842   4.618   4.434  0.00  0.00    +0.000 C 
ATOM      2  C13 ENM A 302      23.880   3.452   4.101  0.00  0.00    +0.000 C 
ATOM      3  C14 ENM A 302      24.561   2.093   4.462  0.00  0.00    +0.000 C 
ATOM      4  C10 ENM A 302      25.925   1.922   3.717  0.00  0.00    +0.000 C 
ATOM      5  C05 ENM A 302      26.627   0.555   4.009  0.00  0.00    +0.000 C 
ATOM      6  C18 ENM A 302      26.961   0.435   5.522  0.00  0.00    +0.000 C 
ATOM      7  C06 ENM A 302      25.677  -0.607   3.589  0.00  0.00    +0.000 C 
ATOM      8  C01 ENM A 302      26.337  -2.001   3.728  0.00  0.00    +0.000 C 
ATOM      9  C02 ENM A 302      27.701  -2.026   3.024  0.00  0.00    +0.000 C 
ATOM     10  O02 ENM A 302      27.998  -2.952   2.269  0.00  0.00    +0.000 OA
ATOM     11  C03 ENM A 302      28.676  -0.866   3.266  0.00  0.00    +0.000 C 
ATOM     12  C04 ENM A 302      27.934   0.484   3.142  0.00  0.00    +0.000 C 
ATOM     13  C07 ENM A 302      28.889   1.658   3.451  0.00  0.00    +0.000 C 
ATOM     14  C08 ENM A 302      28.188   2.999   3.169  0.00  0.00    +0.000 C 
ATOM     15  C09 ENM A 302      26.881   3.138   3.995  0.00  0.00    +0.000 C 
ATOM     16  C11 ENM A 302      26.124   4.428   3.620  0.00  0.00    +0.000 C 
ATOM     17  C15 ENM A 302      26.874   5.753   3.768  0.00  0.00    +0.000 C 
ATOM     18  C16 ENM A 302      25.731   6.802   3.727  0.00  0.00    +0.000 C 
ATOM     19  C17 ENM A 302      24.416   5.989   3.900  0.00  0.00    +0.000 C 
ATOM     20  O01 ENM A 302      23.492   6.662   4.764  0.00  0.00    +0.000 OA
ENDROOT
BRANCH   1  21
ATOM     21  C19 ENM A 302      25.176   4.707   5.967  0.00  0.00    +0.000 C 
BRANCH  21  22
ATOM     22  C20 ENM A 302      25.243   3.330   6.655  0.00  0.00    +0.000 C 
BRANCH  22  23
ATOM     23  O03 ENM A 302      26.364   3.385   7.541  0.00  0.00    +0.000 OA
BRANCH  23  24
ATOM     24  C21 ENM A 302      27.564   3.810   6.880  0.00  0.00    +0.000 C 
BRANCH  24  32
ATOM     25  C23 ENM A 302      28.438   1.548   7.136  0.00  0.00    +0.000 A 
ATOM     26  C24 ENM A 302      29.503   0.635   6.966  0.00  0.00    +0.000 A 
ATOM     27  F2  ENM A 302      29.327  -0.685   7.231  0.00  0.00    +0.000 F 
ATOM     28  C25 ENM A 302      30.742   1.081   6.483  0.00  0.00    +0.000 A 
ATOM     29  C26 ENM A 302      30.923   2.435   6.165  0.00  0.00    +0.000 A 
ATOM     30  F1  ENM A 302      32.103   2.854   5.661  0.00  0.00    +0.000 F 
ATOM     31  C27 ENM A 302      29.869   3.346   6.332  0.00  0.00    +0.000 A 
ATOM     32  C22 ENM A 302      28.624   2.907   6.812  0.00  0.00    +0.000 A 
ENDBRANCH  24  32
ENDBRANCH  23  24
ENDBRANCH  22  23
ENDBRANCH  21  22
ENDBRANCH   1  21
TORSDOF 5
ENDMDL
MODEL 8
REMARK VINA RESULT:      -2.4      2.628      7.091
REMARK  Name = ligand_pdbs\ENM.pdb
REMARK  5 active torsions:
REMARK  status: ('A' for Active; 'I' for Inactive)
REMARK    1  A    between atoms: C22_8  and  C21_9
REMARK    2  A    between atoms: C21_9  and  O03_10
REMARK    3  A    between atoms: O03_10  and  C20_11
REMARK    4  A    between atoms: C20_11  and  C19_12
REMARK    5  A    between atoms: C19_12  and  C12_13
REMARK                            x       y       z     vdW  Elec       q    Type
REMARK                         _______ _______ _______ _____ _____    ______ ____
ROOT
ATOM      1  C12 ENM A 302      26.026   2.976   5.496  0.00  0.00    +0.000 C 
ATOM      2  C13 ENM A 302      27.067   2.443   6.508  0.00  0.00    +0.000 C 
ATOM      3  C14 ENM A 302      28.206   1.695   5.741  0.00  0.00    +0.000 C 
ATOM      4  C10 ENM A 302      27.637   0.535   4.862  0.00  0.00    +0.000 C 
ATOM      5  C05 ENM A 302      28.742  -0.276   4.109  0.00  0.00    +0.000 C 
ATOM      6  C18 ENM A 302      29.512   0.651   3.128  0.00  0.00    +0.000 C 
ATOM      7  C06 ENM A 302      29.734  -0.876   5.151  0.00  0.00    +0.000 C 
ATOM      8  C01 ENM A 302      30.796  -1.800   4.504  0.00  0.00    +0.000 C 
ATOM      9  C02 ENM A 302      30.126  -2.848   3.605  0.00  0.00    +0.000 C 
ATOM     10  O02 ENM A 302      30.444  -4.035   3.684  0.00  0.00    +0.000 OA
ATOM     11  C03 ENM A 302      29.040  -2.390   2.621  0.00  0.00    +0.000 C 
ATOM     12  C04 ENM A 302      28.043  -1.449   3.335  0.00  0.00    +0.000 C 
ATOM     13  C07 ENM A 302      26.984  -0.926   2.340  0.00  0.00    +0.000 C 
ATOM     14  C08 ENM A 302      25.905  -0.123   3.088  0.00  0.00    +0.000 C 
ATOM     15  C09 ENM A 302      26.527   1.058   3.880  0.00  0.00    +0.000 C 
ATOM     16  C11 ENM A 302      25.458   1.785   4.720  0.00  0.00    +0.000 C 
ATOM     17  C15 ENM A 302      24.245   2.351   3.980  0.00  0.00    +0.000 C 
ATOM     18  C16 ENM A 302      23.639   3.336   5.015  0.00  0.00    +0.000 C 
ATOM     19  C17 ENM A 302      24.727   3.506   6.112  0.00  0.00    +0.000 C 
ATOM     20  O01 ENM A 302      24.830   4.869   6.544  0.00  0.00    +0.000 OA
ENDROOT
BRANCH   1  21
ATOM     21  C19 ENM A 302      26.633   4.034   4.505  0.00  0.00    +0.000 C 
BRANCH  21  22
ATOM     22  C20 ENM A 302      28.103   4.377   4.809  0.00  0.00    +0.000 C 
BRANCH  22  23
ATOM     23  O03 ENM A 302      28.327   5.680   4.262  0.00  0.00    +0.000 OA
BRANCH  23  24
ATOM     24  C21 ENM A 302      27.953   6.727   5.170  0.00  0.00    +0.000 C 
BRANCH  24  32
ATOM     25  C23 ENM A 302      25.784   6.801   4.059  0.00  0.00    +0.000 A 
ATOM     26  C24 ENM A 302      24.461   7.296   4.017  0.00  0.00    +0.000 A 
ATOM     27  F2  ENM A 302      23.578   6.824   3.101  0.00  0.00    +0.000 F 
ATOM     28  C25 ENM A 302      24.038   8.253   4.951  0.00  0.00    +0.000 A 
ATOM     29  C26 ENM A 302      24.929   8.717   5.930  0.00  0.00    +0.000 A 
ATOM     30  F1  ENM A 302      24.508   9.607   6.853  0.00  0.00    +0.000 F 
ATOM     31  C27 ENM A 302      26.244   8.229   5.976  0.00  0.00    +0.000 A 
ATOM     32  C22 ENM A 302      26.674   7.267   5.046  0.00  0.00    +0.000 A 
ENDBRANCH  24  32
ENDBRANCH  23  24
ENDBRANCH  22  23
ENDBRANCH  21  22
ENDBRANCH   1  21
TORSDOF 5
ENDMDL
MODEL 9
REMARK VINA RESULT:      -2.3      2.315      3.965
REMARK  Name = ligand_pdbs\ENM.pdb
REMARK  5 active torsions:
REMARK  status: ('A' for Active; 'I' for Inactive)
REMARK    1  A    between atoms: C22_8  and  C21_9
REMARK    2  A    between atoms: C21_9  and  O03_10
REMARK    3  A    between atoms: O03_10  and  C20_11
REMARK    4  A    between atoms: C20_11  and  C19_12
REMARK    5  A    between atoms: C19_12  and  C12_13
REMARK                            x       y       z     vdW  Elec       q    Type
REMARK                         _______ _______ _______ _____ _____    ______ ____
ROOT
ATOM      1  C12 ENM A 302      26.753   1.675   3.273  0.00  0.00    +0.000 C 
ATOM      2  C13 ENM A 302      27.805   2.749   2.909  0.00  0.00    +0.000 C 
ATOM      3  C14 ENM A 302      27.686   3.954   3.896  0.00  0.00    +0.000 C 
ATOM      4  C10 ENM A 302      26.244   4.560   3.886  0.00  0.00    +0.000 C 
ATOM      5  C05 ENM A 302      26.083   5.800   4.825  0.00  0.00    +0.000 C 
ATOM      6  C18 ENM A 302      26.356   5.397   6.300  0.00  0.00    +0.000 C 
ATOM      7  C06 ENM A 302      27.094   6.904   4.388  0.00  0.00    +0.000 C 
ATOM      8  C01 ENM A 302      26.923   8.222   5.185  0.00  0.00    +0.000 C 
ATOM      9  C02 ENM A 302      25.457   8.676   5.170  0.00  0.00    +0.000 C 
ATOM     10  O02 ENM A 302      25.168   9.846   4.911  0.00  0.00    +0.000 OA
ATOM     11  C03 ENM A 302      24.361   7.643   5.464  0.00  0.00    +0.000 C 
ATOM     12  C04 ENM A 302      24.623   6.351   4.657  0.00  0.00    +0.000 C 
ATOM     13  C07 ENM A 302      23.566   5.277   4.996  0.00  0.00    +0.000 C 
ATOM     14  C08 ENM A 302      23.736   4.056   4.074  0.00  0.00    +0.000 C 
ATOM     15  C09 ENM A 302      25.163   3.458   4.186  0.00  0.00    +0.000 C 
ATOM     16  C11 ENM A 302      25.365   2.312   3.175  0.00  0.00    +0.000 C 
ATOM     17  C15 ENM A 302      24.394   1.132   3.245  0.00  0.00    +0.000 C 
ATOM     18  C16 ENM A 302      25.124   0.036   2.425  0.00  0.00    +0.000 C 
ATOM     19  C17 ENM A 302      26.579   0.554   2.244  0.00  0.00    +0.000 C 
ATOM     20  O01 ENM A 302      27.536  -0.501   2.400  0.00  0.00    +0.000 OA
ENDROOT
BRANCH   1  21
ATOM     21  C19 ENM A 302      26.977   1.071   4.707  0.00  0.00    +0.000 C 
BRANCH  21  22
ATOM     22  C20 ENM A 302      27.902   1.930   5.590  0.00  0.00    +0.000 C 
BRANCH  22  23
ATOM     23  O03 ENM A 302      28.142   1.165   6.774  0.00  0.00    +0.000 OA
BRANCH  23  24
ATOM     24  C21 ENM A 302      29.216   0.228   6.612  0.00  0.00    +0.000 C 
BRANCH  24  32
ATOM     25  C23 ENM A 302      30.152  -0.933   4.683  0.00  0.00    +0.000 A 
ATOM     26  C24 ENM A 302      30.050  -1.968   3.726  0.00  0.00    +0.000 A 
ATOM     27  F2  ENM A 302      31.072  -2.212   2.866  0.00  0.00    +0.000 F 
ATOM     28  C25 ENM A 302      28.907  -2.779   3.685  0.00  0.00    +0.000 A 
ATOM     29  C26 ENM A 302      27.864  -2.564   4.597  0.00  0.00    +0.000 A 
ATOM     30  F1  ENM A 302      26.782  -3.371   4.583  0.00  0.00    +0.000 F 
ATOM     31  C27 ENM A 302      27.958  -1.537   5.549  0.00  0.00    +0.000 A 
ATOM     32  C22 ENM A 302      29.102  -0.722   5.599  0.00  0.00    +0.000 A 
ENDBRANCH  24  32
ENDBRANCH  23  24
ENDBRANCH  22  23
ENDBRANCH  21  22
ENDBRANCH   1  21
TORSDOF 5
ENDMDL
