MODEL 1
REMARK VINA RESULT:      -8.4      0.000      0.000
REMARK  Name = ligand_pdbs\EQF.pdb
REMARK  2 active torsions:
REMARK  status: ('A' for Active; 'I' for Inactive)
REMARK    1  A    between atoms: C12_2  and  C2_5
REMARK    2  A    between atoms: N2_12  and  N3_13
REMARK                            x       y       z     vdW  Elec       q    Type
REMARK                         _______ _______ _______ _____ _____    ______ ____
ROOT
ATOM      1  C2  EQF C1101      27.792  -0.458   4.509  0.00  0.00    +0.000 C 
ATOM      2  C1  EQF C1101      26.906   0.548   4.124  0.00  0.00    +0.000 C 
ATOM      3 CL   EQF C1101      25.772   0.412   2.731  0.00  0.00    +0.000 Cl
ATOM      4  C3  EQF C1101      28.636  -0.278   5.624  0.00  0.00    +0.000 C 
ATOM      5  C4  EQF C1101      28.551   0.897   6.348  0.00  0.00    +0.000 C 
ATOM      6  C5  EQF C1101      27.635   1.858   5.932  0.00  0.00    +0.000 C 
ATOM      7  N1  EQF C1101      26.858   1.671   4.843  0.00  0.00    +0.000 NA
ATOM      8  N2  EQF C1101      27.494   3.037   6.572  0.00  0.00    +0.000 NA
ENDROOT
BRANCH   8   9
ATOM      9  N3  EQF C1101      26.698   4.017   5.933  0.00  0.00    +0.000 N 
ATOM     10  C9  EQF C1101      27.166   4.913   5.075  0.00  0.00    +0.000 C 
ATOM     11  O1  EQF C1101      28.338   5.031   4.739  0.00  0.00    +0.000 OA
ATOM     12  C8  EQF C1101      26.050   5.786   4.558  0.00  0.00    +0.000 C 
ATOM     13  C11 EQF C1101      26.000   5.681   3.025  0.00  0.00    +0.000 C 
ATOM     14  C7  EQF C1101      24.828   5.274   5.356  0.00  0.00    +0.000 C 
ATOM     15  C10 EQF C1101      23.575   4.873   4.573  0.00  0.00    +0.000 C 
ATOM     16  C6  EQF C1101      25.398   4.120   6.125  0.00  0.00    +0.000 C 
ATOM     17  O2  EQF C1101      24.745   3.383   6.830  0.00  0.00    +0.000 OA
ENDBRANCH   8   9
BRANCH   1  19
ATOM     18  F3  EQF C1101      26.784  -2.474   3.908  0.00  0.00    +0.000 F 
ATOM     19  C12 EQF C1101      27.858  -1.715   3.682  0.00  0.00    +0.000 C 
ATOM     20  F1  EQF C1101      28.136  -1.525   2.379  0.00  0.00    +0.000 F 
ATOM     21  F2  EQF C1101      28.870  -2.368   4.182  0.00  0.00    +0.000 F 
ENDBRANCH   1  19
TORSDOF 2
ENDMDL
MODEL 2
REMARK VINA RESULT:      -8.0      4.354      6.554
REMARK  Name = ligand_pdbs\EQF.pdb
REMARK  2 active torsions:
REMARK  status: ('A' for Active; 'I' for Inactive)
REMARK    1  A    between atoms: C12_2  and  C2_5
REMARK    2  A    between atoms: N2_12  and  N3_13
REMARK                            x       y       z     vdW  Elec       q    Type
REMARK                         _______ _______ _______ _____ _____    ______ ____
ROOT
ATOM      1  C2  EQF C1101      25.068   5.529   4.530  0.00  0.00    +0.000 C 
ATOM      2  C1  EQF C1101      26.363   5.013   4.584  0.00  0.00    +0.000 C 
ATOM      3 CL   EQF C1101      27.852   6.025   4.548  0.00  0.00    +0.000 Cl
ATOM      4  C3  EQF C1101      23.954   4.667   4.581  0.00  0.00    +0.000 C 
ATOM      5  C4  EQF C1101      24.161   3.307   4.716  0.00  0.00    +0.000 C 
ATOM      6  C5  EQF C1101      25.473   2.848   4.786  0.00  0.00    +0.000 C 
ATOM      7  N1  EQF C1101      26.524   3.694   4.707  0.00  0.00    +0.000 NA
ATOM      8  N2  EQF C1101      25.768   1.538   4.906  0.00  0.00    +0.000 NA
ENDROOT
BRANCH   8   9
ATOM      9  N3  EQF C1101      27.125   1.173   4.745  0.00  0.00    +0.000 N 
ATOM     10  C9  EQF C1101      28.073   1.417   5.640  0.00  0.00    +0.000 C 
ATOM     11  O1  EQF C1101      27.913   2.003   6.703  0.00  0.00    +0.000 OA
ATOM     12  C8  EQF C1101      29.399   0.872   5.170  0.00  0.00    +0.000 C 
ATOM     13  C11 EQF C1101      29.931  -0.122   6.215  0.00  0.00    +0.000 C 
ATOM     14  C7  EQF C1101      29.057   0.325   3.764  0.00  0.00    +0.000 C 
ATOM     15  C10 EQF C1101      29.444  -1.120   3.442  0.00  0.00    +0.000 C 
ATOM     16  C6  EQF C1101      27.574   0.537   3.681  0.00  0.00    +0.000 C 
ATOM     17  O2  EQF C1101      26.885   0.171   2.756  0.00  0.00    +0.000 OA
ENDBRANCH   8   9
BRANCH   1  19
ATOM     18  F3  EQF C1101      25.472   7.662   5.384  0.00  0.00    +0.000 F 
ATOM     19  C12 EQF C1101      24.892   7.016   4.370  0.00  0.00    +0.000 C 
ATOM     20  F1  EQF C1101      25.207   7.499   3.155  0.00  0.00    +0.000 F 
ATOM     21  F2  EQF C1101      23.609   7.198   4.516  0.00  0.00    +0.000 F 
ENDBRANCH   1  19
TORSDOF 2
ENDMDL
MODEL 3
REMARK VINA RESULT:      -8.0      1.216      2.355
REMARK  Name = ligand_pdbs\EQF.pdb
REMARK  2 active torsions:
REMARK  status: ('A' for Active; 'I' for Inactive)
REMARK    1  A    between atoms: C12_2  and  C2_5
REMARK    2  A    between atoms: N2_12  and  N3_13
REMARK                            x       y       z     vdW  Elec       q    Type
REMARK                         _______ _______ _______ _____ _____    ______ ____
ROOT
ATOM      1  C2  EQF C1101      29.186  -0.403   4.547  0.00  0.00    +0.000 C 
ATOM      2  C1  EQF C1101      28.173   0.309   3.906  0.00  0.00    +0.000 C 
ATOM      3 CL   EQF C1101      27.476  -0.148   2.308  0.00  0.00    +0.000 Cl
ATOM      4  C3  EQF C1101      29.664   0.012   5.806  0.00  0.00    +0.000 C 
ATOM      5  C4  EQF C1101      29.093   1.117   6.410  0.00  0.00    +0.000 C 
ATOM      6  C5  EQF C1101      28.072   1.779   5.736  0.00  0.00    +0.000 C 
ATOM      7  N1  EQF C1101      27.651   1.375   4.517  0.00  0.00    +0.000 NA
ATOM      8  N2  EQF C1101      27.468   2.871   6.245  0.00  0.00    +0.000 NA
ENDROOT
BRANCH   8   9
ATOM      9  N3  EQF C1101      26.604   3.583   5.379  0.00  0.00    +0.000 N 
ATOM     10  C9  EQF C1101      25.352   3.232   5.121  0.00  0.00    +0.000 C 
ATOM     11  O1  EQF C1101      24.784   2.245   5.571  0.00  0.00    +0.000 OA
ATOM     12  C8  EQF C1101      24.706   4.221   4.184  0.00  0.00    +0.000 C 
ATOM     13  C11 EQF C1101      23.450   4.800   4.854  0.00  0.00    +0.000 C 
ATOM     14  C7  EQF C1101      25.868   5.192   3.869  0.00  0.00    +0.000 C 
ATOM     15  C10 EQF C1101      25.625   6.691   4.068  0.00  0.00    +0.000 C 
ATOM     16  C6  EQF C1101      26.969   4.684   4.752  0.00  0.00    +0.000 C 
ATOM     17  O2  EQF C1101      28.049   5.218   4.868  0.00  0.00    +0.000 OA
ENDBRANCH   8   9
BRANCH   1  19
ATOM     18  F3  EQF C1101      30.918  -1.961   4.444  0.00  0.00    +0.000 F 
ATOM     19  C12 EQF C1101      29.785  -1.593   3.844  0.00  0.00    +0.000 C 
ATOM     20  F1  EQF C1101      28.930  -2.605   3.609  0.00  0.00    +0.000 F 
ATOM     21  F2  EQF C1101      30.132  -1.128   2.677  0.00  0.00    +0.000 F 
ENDBRANCH   1  19
TORSDOF 2
ENDMDL
MODEL 4
REMARK VINA RESULT:      -7.7      4.276      6.358
REMARK  Name = ligand_pdbs\EQF.pdb
REMARK  2 active torsions:
REMARK  status: ('A' for Active; 'I' for Inactive)
REMARK    1  A    between atoms: C12_2  and  C2_5
REMARK    2  A    between atoms: N2_12  and  N3_13
REMARK                            x       y       z     vdW  Elec       q    Type
REMARK                         _______ _______ _______ _____ _____    ______ ____
ROOT
ATOM      1  C2  EQF C1101      25.157   5.377   4.409  0.00  0.00    +0.000 C 
ATOM      2  C1  EQF C1101      26.408   4.765   4.472  0.00  0.00    +0.000 C 
ATOM      3 CL   EQF C1101      27.970   5.651   4.335  0.00  0.00    +0.000 Cl
ATOM      4  C3  EQF C1101      23.980   4.613   4.543  0.00  0.00    +0.000 C 
ATOM      5  C4  EQF C1101      24.084   3.253   4.767  0.00  0.00    +0.000 C 
ATOM      6  C5  EQF C1101      25.357   2.697   4.842  0.00  0.00    +0.000 C 
ATOM      7  N1  EQF C1101      26.469   3.448   4.683  0.00  0.00    +0.000 NA
ATOM      8  N2  EQF C1101      25.552   1.378   5.047  0.00  0.00    +0.000 NA
ENDROOT
BRANCH   8   9
ATOM      9  N3  EQF C1101      26.873   0.896   4.884  0.00  0.00    +0.000 N 
ATOM     10  C9  EQF C1101      27.287   0.202   3.833  0.00  0.00    +0.000 C 
ATOM     11  O1  EQF C1101      26.591  -0.134   2.883  0.00  0.00    +0.000 OA
ATOM     12  C8  EQF C1101      28.753  -0.128   3.961  0.00  0.00    +0.000 C 
ATOM     13  C11 EQF C1101      29.503   0.437   2.744  0.00  0.00    +0.000 C 
ATOM     14  C7  EQF C1101      29.105   0.444   5.354  0.00  0.00    +0.000 C 
ATOM     15  C10 EQF C1101      30.301   1.394   5.459  0.00  0.00    +0.000 C 
ATOM     16  C6  EQF C1101      27.826   1.110   5.768  0.00  0.00    +0.000 C 
ATOM     17  O2  EQF C1101      27.693   1.755   6.784  0.00  0.00    +0.000 OA
ENDBRANCH   8   9
BRANCH   1  19
ATOM     18  F3  EQF C1101      25.840   7.517   5.039  0.00  0.00    +0.000 F 
ATOM     19  C12 EQF C1101      25.092   6.860   4.150  0.00  0.00    +0.000 C 
ATOM     20  F1  EQF C1101      25.305   7.224   2.872  0.00  0.00    +0.000 F 
ATOM     21  F2  EQF C1101      23.856   7.173   4.419  0.00  0.00    +0.000 F 
ENDBRANCH   1  19
TORSDOF 2
ENDMDL
MODEL 5
REMARK VINA RESULT:      -7.5      3.796      6.168
REMARK  Name = ligand_pdbs\EQF.pdb
REMARK  2 active torsions:
REMARK  status: ('A' for Active; 'I' for Inactive)
REMARK    1  A    between atoms: C12_2  and  C2_5
REMARK    2  A    between atoms: N2_12  and  N3_13
REMARK                            x       y       z     vdW  Elec       q    Type
REMARK                         _______ _______ _______ _____ _____    ______ ____
ROOT
ATOM      1  C2  EQF C1101      25.793   4.562   4.721  0.00  0.00    +0.000 C 
ATOM      2  C1  EQF C1101      25.770   3.190   4.477  0.00  0.00    +0.000 C 
ATOM      3 CL   EQF C1101      24.276   2.261   4.090  0.00  0.00    +0.000 Cl
ATOM      4  C3  EQF C1101      27.009   5.217   5.001  0.00  0.00    +0.000 C 
ATOM      5  C4  EQF C1101      28.182   4.486   5.000  0.00  0.00    +0.000 C 
ATOM      6  C5  EQF C1101      28.104   3.123   4.731  0.00  0.00    +0.000 C 
ATOM      7  N1  EQF C1101      26.922   2.515   4.493  0.00  0.00    +0.000 NA
ATOM      8  N2  EQF C1101      29.196   2.331   4.721  0.00  0.00    +0.000 NA
ENDROOT
BRANCH   8   9
ATOM      9  N3  EQF C1101      28.970   0.936   4.655  0.00  0.00    +0.000 N 
ATOM     10  C9  EQF C1101      28.536   0.203   5.671  0.00  0.00    +0.000 C 
ATOM     11  O1  EQF C1101      28.296   0.620   6.797  0.00  0.00    +0.000 OA
ATOM     12  C8  EQF C1101      28.375  -1.238   5.255  0.00  0.00    +0.000 C 
ATOM     13  C11 EQF C1101      26.920  -1.671   5.499  0.00  0.00    +0.000 C 
ATOM     14  C7  EQF C1101      28.887  -1.224   3.795  0.00  0.00    +0.000 C 
ATOM     15  C10 EQF C1101      27.984  -1.818   2.712  0.00  0.00    +0.000 C 
ATOM     16  C6  EQF C1101      29.160   0.231   3.557  0.00  0.00    +0.000 C 
ATOM     17  O2  EQF C1101      29.512   0.693   2.494  0.00  0.00    +0.000 OA
ENDBRANCH   8   9
BRANCH   1  19
ATOM     18  F3  EQF C1101      24.179   5.707   3.486  0.00  0.00    +0.000 F 
ATOM     19  C12 EQF C1101      24.488   5.315   4.724  0.00  0.00    +0.000 C 
ATOM     20  F1  EQF C1101      23.482   4.708   5.379  0.00  0.00    +0.000 F 
ATOM     21  F2  EQF C1101      24.755   6.404   5.389  0.00  0.00    +0.000 F 
ENDBRANCH   1  19
TORSDOF 2
ENDMDL
MODEL 6
REMARK VINA RESULT:      -7.3      4.199      6.502
REMARK  Name = ligand_pdbs\EQF.pdb
REMARK  2 active torsions:
REMARK  status: ('A' for Active; 'I' for Inactive)
REMARK    1  A    between atoms: C12_2  and  C2_5
REMARK    2  A    between atoms: N2_12  and  N3_13
REMARK                            x       y       z     vdW  Elec       q    Type
REMARK                         _______ _______ _______ _____ _____    ______ ____
ROOT
ATOM      1  C2  EQF C1101      25.589   5.550   4.150  0.00  0.00    +0.000 C 
ATOM      2  C1  EQF C1101      25.579   4.354   4.867  0.00  0.00    +0.000 C 
ATOM      3 CL   EQF C1101      24.361   3.948   6.130  0.00  0.00    +0.000 Cl
ATOM      4  C3  EQF C1101      26.570   5.783   3.164  0.00  0.00    +0.000 C 
ATOM      5  C4  EQF C1101      27.502   4.798   2.898  0.00  0.00    +0.000 C 
ATOM      6  C5  EQF C1101      27.435   3.616   3.629  0.00  0.00    +0.000 C 
ATOM      7  N1  EQF C1101      26.501   3.429   4.587  0.00  0.00    +0.000 NA
ATOM      8  N2  EQF C1101      28.311   2.608   3.443  0.00  0.00    +0.000 NA
ENDROOT
BRANCH   8   9
ATOM      9  N3  EQF C1101      28.280   1.556   4.389  0.00  0.00    +0.000 N 
ATOM     10  C9  EQF C1101      27.594   0.433   4.231  0.00  0.00    +0.000 C 
ATOM     11  O1  EQF C1101      26.883   0.163   3.271  0.00  0.00    +0.000 OA
ATOM     12  C8  EQF C1101      27.803  -0.486   5.409  0.00  0.00    +0.000 C 
ATOM     13  C11 EQF C1101      28.365  -1.825   4.907  0.00  0.00    +0.000 C 
ATOM     14  C7  EQF C1101      28.694   0.365   6.344  0.00  0.00    +0.000 C 
ATOM     15  C10 EQF C1101      29.993  -0.258   6.861  0.00  0.00    +0.000 C 
ATOM     16  C6  EQF C1101      28.952   1.593   5.522  0.00  0.00    +0.000 C 
ATOM     17  O2  EQF C1101      29.682   2.497   5.862  0.00  0.00    +0.000 OA
ENDBRANCH   8   9
BRANCH   1  19
ATOM     18  F3  EQF C1101      23.357   6.038   4.618  0.00  0.00    +0.000 F 
ATOM     19  C12 EQF C1101      24.560   6.599   4.483  0.00  0.00    +0.000 C 
ATOM     20  F1  EQF C1101      24.899   7.429   5.487  0.00  0.00    +0.000 F 
ATOM     21  F2  EQF C1101      24.497   7.331   3.407  0.00  0.00    +0.000 F 
ENDBRANCH   1  19
TORSDOF 2
ENDMDL
MODEL 7
REMARK VINA RESULT:      -7.2      2.675      3.301
REMARK  Name = ligand_pdbs\EQF.pdb
REMARK  2 active torsions:
REMARK  status: ('A' for Active; 'I' for Inactive)
REMARK    1  A    between atoms: C12_2  and  C2_5
REMARK    2  A    between atoms: N2_12  and  N3_13
REMARK                            x       y       z     vdW  Elec       q    Type
REMARK                         _______ _______ _______ _____ _____    ______ ____
ROOT
ATOM      1  C2  EQF C1101      29.734   0.951   5.480  0.00  0.00    +0.000 C 
ATOM      2  C1  EQF C1101      29.039   2.113   5.812  0.00  0.00    +0.000 C 
ATOM      3 CL   EQF C1101      29.382   3.110   7.272  0.00  0.00    +0.000 Cl
ATOM      4  C3  EQF C1101      29.414   0.236   4.308  0.00  0.00    +0.000 C 
ATOM      5  C4  EQF C1101      28.421   0.720   3.477  0.00  0.00    +0.000 C 
ATOM      6  C5  EQF C1101      27.773   1.895   3.845  0.00  0.00    +0.000 C 
ATOM      7  N1  EQF C1101      28.081   2.545   4.988  0.00  0.00    +0.000 NA
ATOM      8  N2  EQF C1101      26.785   2.431   3.099  0.00  0.00    +0.000 NA
ENDROOT
BRANCH   8   9
ATOM      9  N3  EQF C1101      26.055   3.495   3.681  0.00  0.00    +0.000 N 
ATOM     10  C9  EQF C1101      26.440   4.764   3.655  0.00  0.00    +0.000 C 
ATOM     11  O1  EQF C1101      27.477   5.182   3.154  0.00  0.00    +0.000 OA
ATOM     12  C8  EQF C1101      25.421   5.641   4.338  0.00  0.00    +0.000 C 
ATOM     13  C11 EQF C1101      24.937   6.712   3.348  0.00  0.00    +0.000 C 
ATOM     14  C7  EQF C1101      24.385   4.614   4.851  0.00  0.00    +0.000 C 
ATOM     15  C10 EQF C1101      22.914   4.838   4.494  0.00  0.00    +0.000 C 
ATOM     16  C6  EQF C1101      24.903   3.320   4.296  0.00  0.00    +0.000 C 
ATOM     17  O2  EQF C1101      24.334   2.257   4.405  0.00  0.00    +0.000 OA
ENDBRANCH   8   9
BRANCH   1  19
ATOM     18  F3  EQF C1101      31.820   1.314   6.458  0.00  0.00    +0.000 F 
ATOM     19  C12 EQF C1101      30.800   0.455   6.423  0.00  0.00    +0.000 C 
ATOM     20  F1  EQF C1101      30.355   0.075   7.635  0.00  0.00    +0.000 F 
ATOM     21  F2  EQF C1101      31.255  -0.621   5.845  0.00  0.00    +0.000 F 
ENDBRANCH   1  19
TORSDOF 2
ENDMDL
MODEL 8
REMARK VINA RESULT:      -6.8      2.678      3.809
REMARK  Name = ligand_pdbs\EQF.pdb
REMARK  2 active torsions:
REMARK  status: ('A' for Active; 'I' for Inactive)
REMARK    1  A    between atoms: C12_2  and  C2_5
REMARK    2  A    between atoms: N2_12  and  N3_13
REMARK                            x       y       z     vdW  Elec       q    Type
REMARK                         _______ _______ _______ _____ _____    ______ ____
ROOT
ATOM      1  C2  EQF C1101      29.703   0.858   5.469  0.00  0.00    +0.000 C 
ATOM      2  C1  EQF C1101      29.035   2.058   5.711  0.00  0.00    +0.000 C 
ATOM      3 CL   EQF C1101      29.347   3.114   7.137  0.00  0.00    +0.000 Cl
ATOM      4  C3  EQF C1101      29.411   0.098   4.319  0.00  0.00    +0.000 C 
ATOM      5  C4  EQF C1101      28.476   0.574   3.418  0.00  0.00    +0.000 C 
ATOM      6  C5  EQF C1101      27.855   1.787   3.698  0.00  0.00    +0.000 C 
ATOM      7  N1  EQF C1101      28.133   2.482   4.823  0.00  0.00    +0.000 NA
ATOM      8  N2  EQF C1101      26.923   2.320   2.882  0.00  0.00    +0.000 NA
ENDROOT
BRANCH   8   9
ATOM      9  N3  EQF C1101      26.206   3.435   3.376  0.00  0.00    +0.000 N 
ATOM     10  C9  EQF C1101      25.013   3.359   3.950  0.00  0.00    +0.000 C 
ATOM     11  O1  EQF C1101      24.365   2.332   4.109  0.00  0.00    +0.000 OA
ATOM     12  C8  EQF C1101      24.548   4.725   4.388  0.00  0.00    +0.000 C 
ATOM     13  C11 EQF C1101      24.273   4.700   5.900  0.00  0.00    +0.000 C 
ATOM     14  C7  EQF C1101      25.680   5.645   3.876  0.00  0.00    +0.000 C 
ATOM     15  C10 EQF C1101      26.328   6.610   4.873  0.00  0.00    +0.000 C 
ATOM     16  C6  EQF C1101      26.673   4.667   3.322  0.00  0.00    +0.000 C 
ATOM     17  O2  EQF C1101      27.758   4.974   2.882  0.00  0.00    +0.000 OA
ENDBRANCH   8   9
BRANCH   1  19
ATOM     18  F3  EQF C1101      31.711   1.243   6.592  0.00  0.00    +0.000 F 
ATOM     19  C12 EQF C1101      30.705   0.374   6.485  0.00  0.00    +0.000 C 
ATOM     20  F1  EQF C1101      30.180  -0.012   7.662  0.00  0.00    +0.000 F 
ATOM     21  F2  EQF C1101      31.211  -0.697   5.941  0.00  0.00    +0.000 F 
ENDBRANCH   1  19
TORSDOF 2
ENDMDL
MODEL 9
REMARK VINA RESULT:      -6.6      1.866      2.594
REMARK  Name = ligand_pdbs\EQF.pdb
REMARK  2 active torsions:
REMARK  status: ('A' for Active; 'I' for Inactive)
REMARK    1  A    between atoms: C12_2  and  C2_5
REMARK    2  A    between atoms: N2_12  and  N3_13
REMARK                            x       y       z     vdW  Elec       q    Type
REMARK                         _______ _______ _______ _____ _____    ______ ____
ROOT
ATOM      1  C2  EQF C1101      27.229  -0.288   4.148  0.00  0.00    +0.000 C 
ATOM      2  C1  EQF C1101      27.441   0.857   4.916  0.00  0.00    +0.000 C 
ATOM      3 CL   EQF C1101      28.332   0.869   6.481  0.00  0.00    +0.000 Cl
ATOM      4  C3  EQF C1101      26.535  -0.209   2.924  0.00  0.00    +0.000 C 
ATOM      5  C4  EQF C1101      26.093   1.024   2.481  0.00  0.00    +0.000 C 
ATOM      6  C5  EQF C1101      26.349   2.136   3.276  0.00  0.00    +0.000 C 
ATOM      7  N1  EQF C1101      26.993   2.028   4.458  0.00  0.00    +0.000 NA
ATOM      8  N2  EQF C1101      25.944   3.374   2.926  0.00  0.00    +0.000 NA
ENDROOT
BRANCH   8   9
ATOM      9  N3  EQF C1101      26.064   4.385   3.910  0.00  0.00    +0.000 N 
ATOM     10  C9  EQF C1101      27.220   4.857   4.355  0.00  0.00    +0.000 C 
ATOM     11  O1  EQF C1101      28.329   4.475   4.000  0.00  0.00    +0.000 OA
ATOM     12  C8  EQF C1101      26.991   5.944   5.376  0.00  0.00    +0.000 C 
ATOM     13  C11 EQF C1101      27.684   7.231   4.901  0.00  0.00    +0.000 C 
ATOM     14  C7  EQF C1101      25.450   5.961   5.507  0.00  0.00    +0.000 C 
ATOM     15  C10 EQF C1101      24.730   7.301   5.341  0.00  0.00    +0.000 C 
ATOM     16  C6  EQF C1101      25.022   4.965   4.470  0.00  0.00    +0.000 C 
ATOM     17  O2  EQF C1101      23.868   4.728   4.190  0.00  0.00    +0.000 OA
ENDBRANCH   8   9
BRANCH   1  19
ATOM     18  F3  EQF C1101      29.048  -1.681   4.589  0.00  0.00    +0.000 F 
ATOM     19  C12 EQF C1101      27.718  -1.611   4.678  0.00  0.00    +0.000 C 
ATOM     20  F1  EQF C1101      27.226  -1.959   5.881  0.00  0.00    +0.000 F 
ATOM     21  F2  EQF C1101      27.255  -2.482   3.826  0.00  0.00    +0.000 F 
ENDBRANCH   1  19
TORSDOF 2
ENDMDL
