MODEL 1
REMARK VINA RESULT:      -7.3      0.000      0.000
REMARK  Name = ligand_pdbs\F2X.pdb
REMARK  0 active torsions:
REMARK  status: ('A' for Active; 'I' for Inactive)
REMARK                            x       y       z     vdW  Elec       q    Type
REMARK                         _______ _______ _______ _____ _____    ______ ____
ROOT
ATOM      1  O2  F2X C1101      27.662   2.010   4.838  0.00  0.00    +0.000 OA
ATOM      2  C4  F2X C1101      26.601   2.575   4.815  0.00  0.00    +0.000 C 
ATOM      3  C3  F2X C1101      25.350   1.750   4.793  0.00  0.00    +0.000 C 
ATOM      4  C11 F2X C1101      25.660   0.532   3.938  0.00  0.00    +0.000 C 
ATOM      5  C7  F2X C1101      24.085   2.445   4.279  0.00  0.00    +0.000 C 
ATOM      6  C5  F2X C1101      24.127   3.933   4.489  0.00  0.00    +0.000 C 
ATOM      7  O3  F2X C1101      23.071   4.509   4.526  0.00  0.00    +0.000 OA
ATOM      8  C1  F2X C1101      26.563   4.052   4.822  0.00  0.00    +0.000 A 
ATOM      9  C2  F2X C1101      25.384   4.715   4.662  0.00  0.00    +0.000 A 
ATOM     10  C8  F2X C1101      27.717   4.776   4.991  0.00  0.00    +0.000 A 
ATOM     11  C10 F2X C1101      27.663   6.162   4.994  0.00  0.00    +0.000 A 
ATOM     12  C9  F2X C1101      26.472   6.837   4.823  0.00  0.00    +0.000 A 
ATOM     13  C6  F2X C1101      25.325   6.086   4.657  0.00  0.00    +0.000 A 
ATOM     14  O1  F2X C1101      24.146   6.723   4.497  0.00  0.00    +0.000 OA
ENDROOT
TORSDOF 0
ENDMDL
MODEL 2
REMARK VINA RESULT:      -7.2      1.895      3.102
REMARK  Name = ligand_pdbs\F2X.pdb
REMARK  0 active torsions:
REMARK  status: ('A' for Active; 'I' for Inactive)
REMARK                            x       y       z     vdW  Elec       q    Type
REMARK                         _______ _______ _______ _____ _____    ______ ____
ROOT
ATOM      1  O2  F2X C1101      24.864   0.787   3.567  0.00  0.00    +0.000 OA
ATOM      2  C4  F2X C1101      25.594   1.742   3.548  0.00  0.00    +0.000 C 
ATOM      3  C3  F2X C1101      27.010   1.553   3.096  0.00  0.00    +0.000 C 
ATOM      4  C11 F2X C1101      27.441   0.191   3.614  0.00  0.00    +0.000 C 
ATOM      5  C7  F2X C1101      28.014   2.624   3.536  0.00  0.00    +0.000 C 
ATOM      6  C5  F2X C1101      27.358   3.957   3.767  0.00  0.00    +0.000 C 
ATOM      7  O3  F2X C1101      28.062   4.930   3.694  0.00  0.00    +0.000 OA
ATOM      8  C1  F2X C1101      25.072   3.064   3.952  0.00  0.00    +0.000 A 
ATOM      9  C2  F2X C1101      25.909   4.133   4.065  0.00  0.00    +0.000 A 
ATOM     10  C8  F2X C1101      23.736   3.233   4.218  0.00  0.00    +0.000 A 
ATOM     11  C10 F2X C1101      23.264   4.482   4.597  0.00  0.00    +0.000 A 
ATOM     12  C9  F2X C1101      24.111   5.564   4.722  0.00  0.00    +0.000 A 
ATOM     13  C6  F2X C1101      25.450   5.369   4.446  0.00  0.00    +0.000 A 
ATOM     14  O1  F2X C1101      26.297   6.414   4.553  0.00  0.00    +0.000 OA
ENDROOT
TORSDOF 0
ENDMDL
MODEL 3
REMARK VINA RESULT:      -7.2      1.716      3.891
REMARK  Name = ligand_pdbs\F2X.pdb
REMARK  0 active torsions:
REMARK  status: ('A' for Active; 'I' for Inactive)
REMARK                            x       y       z     vdW  Elec       q    Type
REMARK                         _______ _______ _______ _____ _____    ______ ____
ROOT
ATOM      1  O2  F2X C1101      27.975   5.922   4.225  0.00  0.00    +0.000 OA
ATOM      2  C4  F2X C1101      26.862   5.469   4.188  0.00  0.00    +0.000 C 
ATOM      3  C3  F2X C1101      25.703   6.400   4.377  0.00  0.00    +0.000 C 
ATOM      4  C11 F2X C1101      26.148   7.427   5.406  0.00  0.00    +0.000 C 
ATOM      5  C7  F2X C1101      24.380   5.762   4.810  0.00  0.00    +0.000 C 
ATOM      6  C5  F2X C1101      24.266   4.330   4.364  0.00  0.00    +0.000 C 
ATOM      7  O3  F2X C1101      23.156   3.877   4.266  0.00  0.00    +0.000 OA
ATOM      8  C1  F2X C1101      26.672   4.024   3.946  0.00  0.00    +0.000 A 
ATOM      9  C2  F2X C1101      25.433   3.465   4.032  0.00  0.00    +0.000 A 
ATOM     10  C8  F2X C1101      27.743   3.225   3.631  0.00  0.00    +0.000 A 
ATOM     11  C10 F2X C1101      27.546   1.870   3.408  0.00  0.00    +0.000 A 
ATOM     12  C9  F2X C1101      26.294   1.299   3.504  0.00  0.00    +0.000 A 
ATOM     13  C6  F2X C1101      25.232   2.125   3.820  0.00  0.00    +0.000 A 
ATOM     14  O1  F2X C1101      23.996   1.591   3.910  0.00  0.00    +0.000 OA
ENDROOT
TORSDOF 0
ENDMDL
MODEL 4
REMARK VINA RESULT:      -7.2      1.131      4.759
REMARK  Name = ligand_pdbs\F2X.pdb
REMARK  0 active torsions:
REMARK  status: ('A' for Active; 'I' for Inactive)
REMARK                            x       y       z     vdW  Elec       q    Type
REMARK                         _______ _______ _______ _____ _____    ______ ____
ROOT
ATOM      1  O2  F2X C1101      23.275   4.523   4.478  0.00  0.00    +0.000 OA
ATOM      2  C4  F2X C1101      24.468   4.398   4.558  0.00  0.00    +0.000 C 
ATOM      3  C3  F2X C1101      25.275   5.541   5.093  0.00  0.00    +0.000 C 
ATOM      4  C11 F2X C1101      24.606   6.807   4.583  0.00  0.00    +0.000 C 
ATOM      5  C7  F2X C1101      26.764   5.553   4.733  0.00  0.00    +0.000 C 
ATOM      6  C5  F2X C1101      27.299   4.170   4.481  0.00  0.00    +0.000 C 
ATOM      7  O3  F2X C1101      28.484   4.013   4.612  0.00  0.00    +0.000 OA
ATOM      8  C1  F2X C1101      25.096   3.127   4.141  0.00  0.00    +0.000 A 
ATOM      9  C2  F2X C1101      26.452   3.006   4.096  0.00  0.00    +0.000 A 
ATOM     10  C8  F2X C1101      24.319   2.048   3.795  0.00  0.00    +0.000 A 
ATOM     11  C10 F2X C1101      24.926   0.863   3.405  0.00  0.00    +0.000 A 
ATOM     12  C9  F2X C1101      26.299   0.741   3.349  0.00  0.00    +0.000 A 
ATOM     13  C6  F2X C1101      27.058   1.839   3.705  0.00  0.00    +0.000 A 
ATOM     14  O1  F2X C1101      28.403   1.742   3.666  0.00  0.00    +0.000 OA
ENDROOT
TORSDOF 0
ENDMDL
MODEL 5
REMARK VINA RESULT:      -7.2      1.063      1.172
REMARK  Name = ligand_pdbs\F2X.pdb
REMARK  0 active torsions:
REMARK  status: ('A' for Active; 'I' for Inactive)
REMARK                            x       y       z     vdW  Elec       q    Type
REMARK                         _______ _______ _______ _____ _____    ______ ____
ROOT
ATOM      1  O2  F2X C1101      28.579   2.093   3.804  0.00  0.00    +0.000 OA
ATOM      2  C4  F2X C1101      27.408   2.304   3.978  0.00  0.00    +0.000 C 
ATOM      3  C3  F2X C1101      26.456   1.148   3.925  0.00  0.00    +0.000 C 
ATOM      4  C11 F2X C1101      26.979   0.218   2.843  0.00  0.00    +0.000 C 
ATOM      5  C7  F2X C1101      24.986   1.488   3.659  0.00  0.00    +0.000 C 
ATOM      6  C5  F2X C1101      24.629   2.873   4.125  0.00  0.00    +0.000 C 
ATOM      7  O3  F2X C1101      23.469   3.086   4.360  0.00  0.00    +0.000 OA
ATOM      8  C1  F2X C1101      26.950   3.682   4.250  0.00  0.00    +0.000 A 
ATOM      9  C2  F2X C1101      25.620   3.968   4.319  0.00  0.00    +0.000 A 
ATOM     10  C8  F2X C1101      27.860   4.693   4.438  0.00  0.00    +0.000 A 
ATOM     11  C10 F2X C1101      27.412   5.981   4.692  0.00  0.00    +0.000 A 
ATOM     12  C9  F2X C1101      26.066   6.276   4.753  0.00  0.00    +0.000 A 
ATOM     13  C6  F2X C1101      25.170   5.242   4.563  0.00  0.00    +0.000 A 
ATOM     14  O1  F2X C1101      23.848   5.504   4.626  0.00  0.00    +0.000 OA
ENDROOT
TORSDOF 0
ENDMDL
MODEL 6
REMARK VINA RESULT:      -6.9      2.681      4.561
REMARK  Name = ligand_pdbs\F2X.pdb
REMARK  0 active torsions:
REMARK  status: ('A' for Active; 'I' for Inactive)
REMARK                            x       y       z     vdW  Elec       q    Type
REMARK                         _______ _______ _______ _____ _____    ______ ____
ROOT
ATOM      1  O2  F2X C1101      29.488  -0.648   4.723  0.00  0.00    +0.000 OA
ATOM      2  C4  F2X C1101      29.196   0.517   4.789  0.00  0.00    +0.000 C 
ATOM      3  C3  F2X C1101      30.064   1.428   5.603  0.00  0.00    +0.000 C 
ATOM      4  C11 F2X C1101      30.517   0.617   6.806  0.00  0.00    +0.000 C 
ATOM      5  C7  F2X C1101      29.426   2.742   6.066  0.00  0.00    +0.000 C 
ATOM      6  C5  F2X C1101      28.332   3.200   5.142  0.00  0.00    +0.000 C 
ATOM      7  O3  F2X C1101      28.065   4.373   5.152  0.00  0.00    +0.000 OA
ATOM      8  C1  F2X C1101      28.011   1.012   4.060  0.00  0.00    +0.000 A 
ATOM      9  C2  F2X C1101      27.584   2.295   4.224  0.00  0.00    +0.000 A 
ATOM     10  C8  F2X C1101      27.323   0.185   3.206  0.00  0.00    +0.000 A 
ATOM     11  C10 F2X C1101      26.212   0.667   2.531  0.00  0.00    +0.000 A 
ATOM     12  C9  F2X C1101      25.771   1.963   2.702  0.00  0.00    +0.000 A 
ATOM     13  C6  F2X C1101      26.480   2.776   3.564  0.00  0.00    +0.000 A 
ATOM     14  O1  F2X C1101      26.074   4.050   3.742  0.00  0.00    +0.000 OA
ENDROOT
TORSDOF 0
ENDMDL
MODEL 7
REMARK VINA RESULT:      -6.9      2.362      4.769
REMARK  Name = ligand_pdbs\F2X.pdb
REMARK  0 active torsions:
REMARK  status: ('A' for Active; 'I' for Inactive)
REMARK                            x       y       z     vdW  Elec       q    Type
REMARK                         _______ _______ _______ _____ _____    ______ ____
ROOT
ATOM      1  O2  F2X C1101      24.240   1.609   3.508  0.00  0.00    +0.000 OA
ATOM      2  C4  F2X C1101      25.180   1.990   4.153  0.00  0.00    +0.000 C 
ATOM      3  C3  F2X C1101      24.950   3.026   5.211  0.00  0.00    +0.000 C 
ATOM      4  C11 F2X C1101      23.885   3.962   4.664  0.00  0.00    +0.000 C 
ATOM      5  C7  F2X C1101      26.176   3.829   5.657  0.00  0.00    +0.000 C 
ATOM      6  C5  F2X C1101      27.457   3.063   5.471  0.00  0.00    +0.000 C 
ATOM      7  O3  F2X C1101      28.393   3.393   6.150  0.00  0.00    +0.000 OA
ATOM      8  C1  F2X C1101      26.519   1.422   3.894  0.00  0.00    +0.000 A 
ATOM      9  C2  F2X C1101      27.619   1.930   4.516  0.00  0.00    +0.000 A 
ATOM     10  C8  F2X C1101      26.672   0.372   3.022  0.00  0.00    +0.000 A 
ATOM     11  C10 F2X C1101      27.937  -0.148   2.790  0.00  0.00    +0.000 A 
ATOM     12  C9  F2X C1101      29.054   0.370   3.412  0.00  0.00    +0.000 A 
ATOM     13  C6  F2X C1101      28.874   1.424   4.286  0.00  0.00    +0.000 A 
ATOM     14  O1  F2X C1101      29.950   1.944   4.912  0.00  0.00    +0.000 OA
ENDROOT
TORSDOF 0
ENDMDL
MODEL 8
REMARK VINA RESULT:      -6.9      1.555      3.881
REMARK  Name = ligand_pdbs\F2X.pdb
REMARK  0 active torsions:
REMARK  status: ('A' for Active; 'I' for Inactive)
REMARK                            x       y       z     vdW  Elec       q    Type
REMARK                         _______ _______ _______ _____ _____    ______ ____
ROOT
ATOM      1  O2  F2X C1101      27.669   6.731   5.143  0.00  0.00    +0.000 OA
ATOM      2  C4  F2X C1101      26.748   5.998   4.896  0.00  0.00    +0.000 C 
ATOM      3  C3  F2X C1101      25.435   6.605   4.505  0.00  0.00    +0.000 C 
ATOM      4  C11 F2X C1101      25.289   7.870   5.334  0.00  0.00    +0.000 C 
ATOM      5  C7  F2X C1101      24.197   5.719   4.677  0.00  0.00    +0.000 C 
ATOM      6  C5  F2X C1101      24.528   4.255   4.582  0.00  0.00    +0.000 C 
ATOM      7  O3  F2X C1101      23.631   3.512   4.280  0.00  0.00    +0.000 OA
ATOM      8  C1  F2X C1101      26.942   4.536   4.972  0.00  0.00    +0.000 A 
ATOM      9  C2  F2X C1101      25.884   3.689   4.827  0.00  0.00    +0.000 A 
ATOM     10  C8  F2X C1101      28.191   4.010   5.188  0.00  0.00    +0.000 A 
ATOM     11  C10 F2X C1101      28.354   2.634   5.258  0.00  0.00    +0.000 A 
ATOM     12  C9  F2X C1101      27.284   1.774   5.121  0.00  0.00    +0.000 A 
ATOM     13  C6  F2X C1101      26.037   2.328   4.902  0.00  0.00    +0.000 A 
ATOM     14  O1  F2X C1101      24.976   1.507   4.757  0.00  0.00    +0.000 OA
ENDROOT
TORSDOF 0
ENDMDL
MODEL 9
REMARK VINA RESULT:      -6.8      2.642      4.981
REMARK  Name = ligand_pdbs\F2X.pdb
REMARK  0 active torsions:
REMARK  status: ('A' for Active; 'I' for Inactive)
REMARK                            x       y       z     vdW  Elec       q    Type
REMARK                         _______ _______ _______ _____ _____    ______ ____
ROOT
ATOM      1  O2  F2X C1101      27.990   4.775   5.321  0.00  0.00    +0.000 OA
ATOM      2  C4  F2X C1101      27.816   3.754   4.709  0.00  0.00    +0.000 C 
ATOM      3  C3  F2X C1101      26.900   3.777   3.524  0.00  0.00    +0.000 C 
ATOM      4  C11 F2X C1101      25.774   4.734   3.876  0.00  0.00    +0.000 C 
ATOM      5  C7  F2X C1101      26.324   2.428   3.082  0.00  0.00    +0.000 C 
ATOM      6  C5  F2X C1101      27.220   1.278   3.452  0.00  0.00    +0.000 C 
ATOM      7  O3  F2X C1101      27.100   0.266   2.812  0.00  0.00    +0.000 OA
ATOM      8  C1  F2X C1101      28.516   2.524   5.133  0.00  0.00    +0.000 A 
ATOM      9  C2  F2X C1101      28.236   1.330   4.541  0.00  0.00    +0.000 A 
ATOM     10  C8  F2X C1101      29.459   2.568   6.130  0.00  0.00    +0.000 A 
ATOM     11  C10 F2X C1101      30.105   1.403   6.515  0.00  0.00    +0.000 A 
ATOM     12  C9  F2X C1101      29.817   0.190   5.925  0.00  0.00    +0.000 A 
ATOM     13  C6  F2X C1101      28.866   0.172   4.923  0.00  0.00    +0.000 A 
ATOM     14  O1  F2X C1101      28.573  -1.001   4.323  0.00  0.00    +0.000 OA
ENDROOT
TORSDOF 0
ENDMDL
