MODEL 1
REMARK VINA RESULT:      -5.6      0.000      0.000
REMARK  Name = ligand_pdbs\FAK.pdb
REMARK  7 active torsions:
REMARK  status: ('A' for Active; 'I' for Inactive)
REMARK    1  A    between atoms: CA_2  and  C_3
REMARK    2  A    between atoms: CA_2  and  CB_5
REMARK    3  A    between atoms: CB_5  and  CG_6
REMARK    4  A    between atoms: CG_6  and  CD_7
REMARK    5  A    between atoms: CD_7  and  CE_8
REMARK    6  A    between atoms: CE_8  and  NZ_9
REMARK    7  A    between atoms: CH_10  and  CT_12
REMARK                            x       y       z     vdW  Elec       q    Type
REMARK                         _______ _______ _______ _____ _____    ______ ____
ROOT
ATOM      1  CE  FAK C1008      24.621   2.372   4.617  0.00  0.00    +0.000 C 
ENDROOT
BRANCH   1   2
ATOM      2  NZ  FAK C1008      25.440   3.518   4.206  0.00  0.00    +0.000 NA
ATOM      3  CH  FAK C1008      25.006   4.785   4.429  0.00  0.00    +0.000 C 
ATOM      4  OH  FAK C1008      23.954   5.110   4.991  0.00  0.00    +0.000 OA
BRANCH   3   5
ATOM      5  CT  FAK C1008      25.949   5.909   3.899  0.00  0.00    +0.000 C 
ATOM      6  FI1 FAK C1008      26.764   5.363   2.881  0.00  0.00    +0.000 F 
ATOM      7  FI2 FAK C1008      26.829   6.461   4.989  0.00  0.00    +0.000 F 
ATOM      8  FI3 FAK C1008      25.222   6.863   3.399  0.00  0.00    +0.000 F 
ENDBRANCH   3   5
ENDBRANCH   1   2
BRANCH   1   9
ATOM      9  CD  FAK C1008      24.617   1.417   3.442  0.00  0.00    +0.000 C 
BRANCH   9  10
ATOM     10  CG  FAK C1008      25.915   1.671   2.687  0.00  0.00    +0.000 C 
BRANCH  10  11
ATOM     11  CB  FAK C1008      26.728   0.413   2.870  0.00  0.00    +0.000 C 
BRANCH  11  13
ATOM     12  N   FAK C1008      29.119  -0.020   3.142  0.00  0.00    +0.000 NA
ATOM     13  CA  FAK C1008      27.994   0.778   3.609  0.00  0.00    +0.000 C 
BRANCH  13  14
ATOM     14  C   FAK C1008      27.885   0.420   5.088  0.00  0.00    +0.000 C 
ATOM     15  O   FAK C1008      27.763   1.310   5.948  0.00  0.00    +0.000 OA
ENDBRANCH  13  14
ENDBRANCH  11  13
ENDBRANCH  10  11
ENDBRANCH   9  10
ENDBRANCH   1   9
TORSDOF 7
ENDMDL
MODEL 2
REMARK VINA RESULT:      -5.4      1.267      1.514
REMARK  Name = ligand_pdbs\FAK.pdb
REMARK  7 active torsions:
REMARK  status: ('A' for Active; 'I' for Inactive)
REMARK    1  A    between atoms: CA_2  and  C_3
REMARK    2  A    between atoms: CA_2  and  CB_5
REMARK    3  A    between atoms: CB_5  and  CG_6
REMARK    4  A    between atoms: CG_6  and  CD_7
REMARK    5  A    between atoms: CD_7  and  CE_8
REMARK    6  A    between atoms: CE_8  and  NZ_9
REMARK    7  A    between atoms: CH_10  and  CT_12
REMARK                            x       y       z     vdW  Elec       q    Type
REMARK                         _______ _______ _______ _____ _____    ______ ____
ROOT
ATOM      1  CE  FAK C1008      25.986   3.162   4.527  0.00  0.00    +0.000 C 
ENDROOT
BRANCH   1   2
ATOM      2  NZ  FAK C1008      26.140   4.618   4.434  0.00  0.00    +0.000 NA
ATOM      3  CH  FAK C1008      25.071   5.434   4.623  0.00  0.00    +0.000 C 
ATOM      4  OH  FAK C1008      23.921   5.080   4.905  0.00  0.00    +0.000 OA
BRANCH   3   5
ATOM      5  CT  FAK C1008      25.363   6.956   4.446  0.00  0.00    +0.000 C 
ATOM      6  FI1 FAK C1008      25.100   7.307   3.103  0.00  0.00    +0.000 F 
ATOM      7  FI2 FAK C1008      26.794   7.293   4.770  0.00  0.00    +0.000 F 
ATOM      8  FI3 FAK C1008      24.569   7.627   5.226  0.00  0.00    +0.000 F 
ENDBRANCH   3   5
ENDBRANCH   1   2
BRANCH   1   9
ATOM      9  CD  FAK C1008      26.146   2.632   3.119  0.00  0.00    +0.000 C 
BRANCH   9  10
ATOM     10  CG  FAK C1008      27.110   1.457   3.217  0.00  0.00    +0.000 C 
BRANCH  10  11
ATOM     11  CB  FAK C1008      28.370   2.032   3.816  0.00  0.00    +0.000 C 
BRANCH  11  13
ATOM     12  N   FAK C1008      29.183  -0.179   3.158  0.00  0.00    +0.000 NA
ATOM     13  CA  FAK C1008      29.295   0.885   4.148  0.00  0.00    +0.000 C 
BRANCH  13  14
ATOM     14  C   FAK C1008      28.884   0.210   5.453  0.00  0.00    +0.000 C 
ATOM     15  O   FAK C1008      28.608   0.889   6.457  0.00  0.00    +0.000 OA
ENDBRANCH  13  14
ENDBRANCH  11  13
ENDBRANCH  10  11
ENDBRANCH   9  10
ENDBRANCH   1   9
TORSDOF 7
ENDMDL
MODEL 3
REMARK VINA RESULT:      -5.4      1.979      2.362
REMARK  Name = ligand_pdbs\FAK.pdb
REMARK  7 active torsions:
REMARK  status: ('A' for Active; 'I' for Inactive)
REMARK    1  A    between atoms: CA_2  and  C_3
REMARK    2  A    between atoms: CA_2  and  CB_5
REMARK    3  A    between atoms: CB_5  and  CG_6
REMARK    4  A    between atoms: CG_6  and  CD_7
REMARK    5  A    between atoms: CD_7  and  CE_8
REMARK    6  A    between atoms: CE_8  and  NZ_9
REMARK    7  A    between atoms: CH_10  and  CT_12
REMARK                            x       y       z     vdW  Elec       q    Type
REMARK                         _______ _______ _______ _____ _____    ______ ____
ROOT
ATOM      1  CE  FAK C1008      27.264   3.571   4.933  0.00  0.00    +0.000 C 
ENDROOT
BRANCH   1   2
ATOM      2  NZ  FAK C1008      26.128   4.460   4.668  0.00  0.00    +0.000 NA
ATOM      3  CH  FAK C1008      26.287   5.809   4.712  0.00  0.00    +0.000 C 
ATOM      4  OH  FAK C1008      27.340   6.414   4.937  0.00  0.00    +0.000 OA
BRANCH   3   5
ATOM      5  CT  FAK C1008      24.989   6.635   4.459  0.00  0.00    +0.000 C 
ATOM      6  FI1 FAK C1008      24.918   7.662   5.428  0.00  0.00    +0.000 F 
ATOM      7  FI2 FAK C1008      23.753   5.780   4.560  0.00  0.00    +0.000 F 
ATOM      8  FI3 FAK C1008      25.056   7.167   3.276  0.00  0.00    +0.000 F 
ENDBRANCH   3   5
ENDBRANCH   1   2
BRANCH   1   9
ATOM      9  CD  FAK C1008      27.703   3.038   3.587  0.00  0.00    +0.000 C 
BRANCH   9  10
ATOM     10  CG  FAK C1008      26.863   1.794   3.332  0.00  0.00    +0.000 C 
BRANCH  10  11
ATOM     11  CB  FAK C1008      27.857   0.664   3.216  0.00  0.00    +0.000 C 
BRANCH  11  13
ATOM     12  N   FAK C1008      26.283  -0.033   4.952  0.00  0.00    +0.000 NA
ATOM     13  CA  FAK C1008      27.544  -0.347   4.293  0.00  0.00    +0.000 C 
BRANCH  13  14
ATOM     14  C   FAK C1008      28.569  -0.279   5.421  0.00  0.00    +0.000 C 
ATOM     15  O   FAK C1008      28.478   0.586   6.309  0.00  0.00    +0.000 OA
ENDBRANCH  13  14
ENDBRANCH  11  13
ENDBRANCH  10  11
ENDBRANCH   9  10
ENDBRANCH   1   9
TORSDOF 7
ENDMDL
MODEL 4
REMARK VINA RESULT:      -5.4      2.501      2.796
REMARK  Name = ligand_pdbs\FAK.pdb
REMARK  7 active torsions:
REMARK  status: ('A' for Active; 'I' for Inactive)
REMARK    1  A    between atoms: CA_2  and  C_3
REMARK    2  A    between atoms: CA_2  and  CB_5
REMARK    3  A    between atoms: CB_5  and  CG_6
REMARK    4  A    between atoms: CG_6  and  CD_7
REMARK    5  A    between atoms: CD_7  and  CE_8
REMARK    6  A    between atoms: CE_8  and  NZ_9
REMARK    7  A    between atoms: CH_10  and  CT_12
REMARK                            x       y       z     vdW  Elec       q    Type
REMARK                         _______ _______ _______ _____ _____    ______ ____
ROOT
ATOM      1  CE  FAK C1008      27.691   3.943   4.659  0.00  0.00    +0.000 C 
ENDROOT
BRANCH   1   2
ATOM      2  NZ  FAK C1008      26.483   4.747   4.445  0.00  0.00    +0.000 NA
ATOM      3  CH  FAK C1008      26.480   6.073   4.738  0.00  0.00    +0.000 C 
ATOM      4  OH  FAK C1008      27.436   6.728   5.167  0.00  0.00    +0.000 OA
BRANCH   3   5
ATOM      5  CT  FAK C1008      25.118   6.797   4.510  0.00  0.00    +0.000 C 
ATOM      6  FI1 FAK C1008      25.097   7.302   3.190  0.00  0.00    +0.000 F 
ATOM      7  FI2 FAK C1008      24.921   7.936   5.475  0.00  0.00    +0.000 F 
ATOM      8  FI3 FAK C1008      24.157   5.934   4.652  0.00  0.00    +0.000 F 
ENDBRANCH   3   5
ENDBRANCH   1   2
BRANCH   1   9
ATOM      9  CD  FAK C1008      27.660   2.852   3.609  0.00  0.00    +0.000 C 
BRANCH   9  10
ATOM     10  CG  FAK C1008      28.691   1.819   4.045  0.00  0.00    +0.000 C 
BRANCH  10  11
ATOM     11  CB  FAK C1008      28.939   2.103   5.507  0.00  0.00    +0.000 C 
BRANCH  11  13
ATOM     12  N   FAK C1008      30.292   0.497   6.759  0.00  0.00    +0.000 NA
ATOM     13  CA  FAK C1008      28.961   0.784   6.241  0.00  0.00    +0.000 C 
BRANCH  13  14
ATOM     14  C   FAK C1008      28.684  -0.377   5.290  0.00  0.00    +0.000 C 
ATOM     15  O   FAK C1008      27.770  -1.185   5.527  0.00  0.00    +0.000 OA
ENDBRANCH  13  14
ENDBRANCH  11  13
ENDBRANCH  10  11
ENDBRANCH   9  10
ENDBRANCH   1   9
TORSDOF 7
ENDMDL
MODEL 5
REMARK VINA RESULT:      -5.4      0.960      1.432
REMARK  Name = ligand_pdbs\FAK.pdb
REMARK  7 active torsions:
REMARK  status: ('A' for Active; 'I' for Inactive)
REMARK    1  A    between atoms: CA_2  and  C_3
REMARK    2  A    between atoms: CA_2  and  CB_5
REMARK    3  A    between atoms: CB_5  and  CG_6
REMARK    4  A    between atoms: CG_6  and  CD_7
REMARK    5  A    between atoms: CD_7  and  CE_8
REMARK    6  A    between atoms: CE_8  and  NZ_9
REMARK    7  A    between atoms: CH_10  and  CT_12
REMARK                            x       y       z     vdW  Elec       q    Type
REMARK                         _______ _______ _______ _____ _____    ______ ____
ROOT
ATOM      1  CE  FAK C1008      24.597   2.340   4.725  0.00  0.00    +0.000 C 
ENDROOT
BRANCH   1   2
ATOM      2  NZ  FAK C1008      25.324   3.574   4.410  0.00  0.00    +0.000 NA
ATOM      3  CH  FAK C1008      24.700   4.778   4.490  0.00  0.00    +0.000 C 
ATOM      4  OH  FAK C1008      23.531   4.974   4.840  0.00  0.00    +0.000 OA
BRANCH   3   5
ATOM      5  CT  FAK C1008      25.574   6.003   4.080  0.00  0.00    +0.000 C 
ATOM      6  FI1 FAK C1008      24.734   6.968   3.478  0.00  0.00    +0.000 F 
ATOM      7  FI2 FAK C1008      26.656   5.618   3.106  0.00  0.00    +0.000 F 
ATOM      8  FI3 FAK C1008      26.109   6.511   5.149  0.00  0.00    +0.000 F 
ENDBRANCH   3   5
ENDBRANCH   1   2
BRANCH   1   9
ATOM      9  CD  FAK C1008      24.596   1.517   3.455  0.00  0.00    +0.000 C 
BRANCH   9  10
ATOM     10  CG  FAK C1008      25.982   1.679   2.847  0.00  0.00    +0.000 C 
BRANCH  10  11
ATOM     11  CB  FAK C1008      26.628   0.320   2.972  0.00  0.00    +0.000 C 
BRANCH  11  13
ATOM     12  N   FAK C1008      27.565   0.251   5.229  0.00  0.00    +0.000 NA
ATOM     13  CA  FAK C1008      27.868   0.469   3.821  0.00  0.00    +0.000 C 
BRANCH  13  14
ATOM     14  C   FAK C1008      28.390   1.902   3.781  0.00  0.00    +0.000 C 
ATOM     15  O   FAK C1008      28.789   2.460   4.818  0.00  0.00    +0.000 OA
ENDBRANCH  13  14
ENDBRANCH  11  13
ENDBRANCH  10  11
ENDBRANCH   9  10
ENDBRANCH   1   9
TORSDOF 7
ENDMDL
MODEL 6
REMARK VINA RESULT:      -5.3      4.322      6.580
REMARK  Name = ligand_pdbs\FAK.pdb
REMARK  7 active torsions:
REMARK  status: ('A' for Active; 'I' for Inactive)
REMARK    1  A    between atoms: CA_2  and  C_3
REMARK    2  A    between atoms: CA_2  and  CB_5
REMARK    3  A    between atoms: CB_5  and  CG_6
REMARK    4  A    between atoms: CG_6  and  CD_7
REMARK    5  A    between atoms: CD_7  and  CE_8
REMARK    6  A    between atoms: CE_8  and  NZ_9
REMARK    7  A    between atoms: CH_10  and  CT_12
REMARK                            x       y       z     vdW  Elec       q    Type
REMARK                         _______ _______ _______ _____ _____    ______ ____
ROOT
ATOM      1  CE  FAK C1008      29.236   1.577   4.231  0.00  0.00    +0.000 C 
ENDROOT
BRANCH   1   2
ATOM      2  NZ  FAK C1008      28.984   0.227   3.716  0.00  0.00    +0.000 NA
ATOM      3  CH  FAK C1008      28.595  -0.767   4.556  0.00  0.00    +0.000 C 
ATOM      4  OH  FAK C1008      28.393  -0.660   5.771  0.00  0.00    +0.000 OA
BRANCH   3   5
ATOM      5  CT  FAK C1008      28.409  -2.163   3.887  0.00  0.00    +0.000 C 
ATOM      6  FI1 FAK C1008      27.509  -2.918   4.673  0.00  0.00    +0.000 F 
ATOM      7  FI2 FAK C1008      29.712  -2.910   3.778  0.00  0.00    +0.000 F 
ATOM      8  FI3 FAK C1008      27.902  -1.994   2.703  0.00  0.00    +0.000 F 
ENDBRANCH   3   5
ENDBRANCH   1   2
BRANCH   1   9
ATOM      9  CD  FAK C1008      28.083   2.431   3.751  0.00  0.00    +0.000 C 
BRANCH   9  10
ATOM     10  CG  FAK C1008      27.480   3.064   4.998  0.00  0.00    +0.000 C 
BRANCH  10  11
ATOM     11  CB  FAK C1008      26.180   3.679   4.538  0.00  0.00    +0.000 C 
BRANCH  11  13
ATOM     12  N   FAK C1008      24.741   5.618   4.920  0.00  0.00    +0.000 NA
ATOM     13  CA  FAK C1008      26.047   5.033   5.193  0.00  0.00    +0.000 C 
BRANCH  13  14
ATOM     14  C   FAK C1008      27.026   6.033   4.586  0.00  0.00    +0.000 C 
ATOM     15  O   FAK C1008      27.596   6.875   5.302  0.00  0.00    +0.000 OA
ENDBRANCH  13  14
ENDBRANCH  11  13
ENDBRANCH  10  11
ENDBRANCH   9  10
ENDBRANCH   1   9
TORSDOF 7
ENDMDL
MODEL 7
REMARK VINA RESULT:      -5.3      4.183      6.230
REMARK  Name = ligand_pdbs\FAK.pdb
REMARK  7 active torsions:
REMARK  status: ('A' for Active; 'I' for Inactive)
REMARK    1  A    between atoms: CA_2  and  C_3
REMARK    2  A    between atoms: CA_2  and  CB_5
REMARK    3  A    between atoms: CB_5  and  CG_6
REMARK    4  A    between atoms: CG_6  and  CD_7
REMARK    5  A    between atoms: CD_7  and  CE_8
REMARK    6  A    between atoms: CE_8  and  NZ_9
REMARK    7  A    between atoms: CH_10  and  CT_12
REMARK                            x       y       z     vdW  Elec       q    Type
REMARK                         _______ _______ _______ _____ _____    ______ ____
ROOT
ATOM      1  CE  FAK C1008      26.824   1.699   3.056  0.00  0.00    +0.000 C 
ENDROOT
BRANCH   1   2
ATOM      2  NZ  FAK C1008      27.428   0.363   3.101  0.00  0.00    +0.000 NA
ATOM      3  CH  FAK C1008      27.056  -0.526   4.059  0.00  0.00    +0.000 C 
ATOM      4  OH  FAK C1008      26.203  -0.343   4.934  0.00  0.00    +0.000 OA
BRANCH   3   5
ATOM      5  CT  FAK C1008      27.812  -1.889   4.022  0.00  0.00    +0.000 C 
ATOM      6  FI1 FAK C1008      27.996  -2.261   2.671  0.00  0.00    +0.000 F 
ATOM      7  FI2 FAK C1008      27.044  -2.974   4.730  0.00  0.00    +0.000 F 
ATOM      8  FI3 FAK C1008      28.973  -1.739   4.585  0.00  0.00    +0.000 F 
ENDBRANCH   3   5
ENDBRANCH   1   2
BRANCH   1   9
ATOM      9  CD  FAK C1008      27.884   2.656   3.557  0.00  0.00    +0.000 C 
BRANCH   9  10
ATOM     10  CG  FAK C1008      27.146   3.725   4.351  0.00  0.00    +0.000 C 
BRANCH  10  11
ATOM     11  CB  FAK C1008      26.851   4.821   3.357  0.00  0.00    +0.000 C 
BRANCH  11  13
ATOM     12  N   FAK C1008      26.795   6.646   4.983  0.00  0.00    +0.000 NA
ATOM     13  CA  FAK C1008      26.001   5.862   4.046  0.00  0.00    +0.000 C 
BRANCH  13  14
ATOM     14  C   FAK C1008      24.943   5.207   4.929  0.00  0.00    +0.000 C 
ATOM     15  O   FAK C1008      23.734   5.360   4.688  0.00  0.00    +0.000 OA
ENDBRANCH  13  14
ENDBRANCH  11  13
ENDBRANCH  10  11
ENDBRANCH   9  10
ENDBRANCH   1   9
TORSDOF 7
ENDMDL
MODEL 8
REMARK VINA RESULT:      -5.2      1.973      2.521
REMARK  Name = ligand_pdbs\FAK.pdb
REMARK  7 active torsions:
REMARK  status: ('A' for Active; 'I' for Inactive)
REMARK    1  A    between atoms: CA_2  and  C_3
REMARK    2  A    between atoms: CA_2  and  CB_5
REMARK    3  A    between atoms: CB_5  and  CG_6
REMARK    4  A    between atoms: CG_6  and  CD_7
REMARK    5  A    between atoms: CD_7  and  CE_8
REMARK    6  A    between atoms: CE_8  and  NZ_9
REMARK    7  A    between atoms: CH_10  and  CT_12
REMARK                            x       y       z     vdW  Elec       q    Type
REMARK                         _______ _______ _______ _____ _____    ______ ____
ROOT
ATOM      1  CE  FAK C1008      27.191   3.893   5.523  0.00  0.00    +0.000 C 
ENDROOT
BRANCH   1   2
ATOM      2  NZ  FAK C1008      26.942   5.287   5.141  0.00  0.00    +0.000 NA
ATOM      3  CH  FAK C1008      25.671   5.756   5.046  0.00  0.00    +0.000 C 
ATOM      4  OH  FAK C1008      24.638   5.120   5.279  0.00  0.00    +0.000 OA
BRANCH   3   5
ATOM      5  CT  FAK C1008      25.548   7.240   4.583  0.00  0.00    +0.000 C 
ATOM      6  FI1 FAK C1008      24.623   7.895   5.427  0.00  0.00    +0.000 F 
ATOM      7  FI2 FAK C1008      25.073   7.345   3.159  0.00  0.00    +0.000 F 
ATOM      8  FI3 FAK C1008      26.710   7.812   4.699  0.00  0.00    +0.000 F 
ENDBRANCH   3   5
ENDBRANCH   1   2
BRANCH   1   9
ATOM      9  CD  FAK C1008      27.365   3.128   4.229  0.00  0.00    +0.000 C 
BRANCH   9  10
ATOM     10  CG  FAK C1008      26.205   2.143   4.162  0.00  0.00    +0.000 C 
BRANCH  10  11
ATOM     11  CB  FAK C1008      26.401   1.392   2.867  0.00  0.00    +0.000 C 
BRANCH  11  13
ATOM     12  N   FAK C1008      26.356  -0.310   4.622  0.00  0.00    +0.000 NA
ATOM     13  CA  FAK C1008      26.493  -0.081   3.190  0.00  0.00    +0.000 C 
BRANCH  13  14
ATOM     14  C   FAK C1008      27.881  -0.626   2.868  0.00  0.00    +0.000 C 
ATOM     15  O   FAK C1008      28.891   0.084   3.017  0.00  0.00    +0.000 OA
ENDBRANCH  13  14
ENDBRANCH  11  13
ENDBRANCH  10  11
ENDBRANCH   9  10
ENDBRANCH   1   9
TORSDOF 7
ENDMDL
MODEL 9
REMARK VINA RESULT:      -5.2      2.785      5.030
REMARK  Name = ligand_pdbs\FAK.pdb
REMARK  7 active torsions:
REMARK  status: ('A' for Active; 'I' for Inactive)
REMARK    1  A    between atoms: CA_2  and  C_3
REMARK    2  A    between atoms: CA_2  and  CB_5
REMARK    3  A    between atoms: CB_5  and  CG_6
REMARK    4  A    between atoms: CG_6  and  CD_7
REMARK    5  A    between atoms: CD_7  and  CE_8
REMARK    6  A    between atoms: CE_8  and  NZ_9
REMARK    7  A    between atoms: CH_10  and  CT_12
REMARK                            x       y       z     vdW  Elec       q    Type
REMARK                         _______ _______ _______ _____ _____    ______ ____
ROOT
ATOM      1  CE  FAK C1008      28.085   5.233   4.035  0.00  0.00    +0.000 C 
ENDROOT
BRANCH   1   2
ATOM      2  NZ  FAK C1008      27.443   4.018   3.521  0.00  0.00    +0.000 NA
ATOM      3  CH  FAK C1008      27.760   2.803   4.038  0.00  0.00    +0.000 C 
ATOM      4  OH  FAK C1008      28.553   2.586   4.960  0.00  0.00    +0.000 OA
BRANCH   3   5
ATOM      5  CT  FAK C1008      27.042   1.593   3.367  0.00  0.00    +0.000 C 
ATOM      6  FI1 FAK C1008      28.020   0.784   2.743  0.00  0.00    +0.000 F 
ATOM      7  FI2 FAK C1008      26.041   2.037   2.334  0.00  0.00    +0.000 F 
ATOM      8  FI3 FAK C1008      26.441   0.901   4.288  0.00  0.00    +0.000 F 
ENDBRANCH   3   5
ENDBRANCH   1   2
BRANCH   1   9
ATOM      9  CD  FAK C1008      27.048   5.924   4.894  0.00  0.00    +0.000 C 
BRANCH   9  10
ATOM     10  CG  FAK C1008      25.814   6.086   4.017  0.00  0.00    +0.000 C 
BRANCH  10  11
ATOM     11  CB  FAK C1008      24.651   5.702   4.899  0.00  0.00    +0.000 C 
BRANCH  11  13
ATOM     12  N   FAK C1008      22.736   4.268   4.393  0.00  0.00    +0.000 NA
ATOM     13  CA  FAK C1008      24.189   4.324   4.490  0.00  0.00    +0.000 C 
BRANCH  13  14
ATOM     14  C   FAK C1008      24.520   3.294   5.566  0.00  0.00    +0.000 C 
ATOM     15  O   FAK C1008      25.090   3.636   6.616  0.00  0.00    +0.000 OA
ENDBRANCH  13  14
ENDBRANCH  11  13
ENDBRANCH  10  11
ENDBRANCH   9  10
ENDBRANCH   1   9
TORSDOF 7
ENDMDL
