MODEL 1
REMARK VINA RESULT:      -1.5      0.000      0.000
REMARK  Name = ligand_pdbs\FE.pdb
REMARK  0 active torsions:
REMARK  status: ('A' for Active; 'I' for Inactive)
REMARK                            x       y       z     vdW  Elec       q    Type
REMARK                         _______ _______ _______ _____ _____    ______ ____
ROOT
ATOM      1 FE   FE  A 201      19.552   9.566   0.526  0.00  0.00    +0.000 Fe
ENDROOT
TORSDOF 0
ENDMDL
MODEL 2
REMARK VINA RESULT:      -1.4      6.027      6.027
REMARK  Name = ligand_pdbs\FE.pdb
REMARK  0 active torsions:
REMARK  status: ('A' for Active; 'I' for Inactive)
REMARK                            x       y       z     vdW  Elec       q    Type
REMARK                         _______ _______ _______ _____ _____    ______ ____
ROOT
ATOM      1 FE   FE  A 201      22.483   9.267   5.784  0.00  0.00    +0.000 Fe
ENDROOT
TORSDOF 0
ENDMDL
MODEL 3
REMARK VINA RESULT:      -1.3      5.545      5.545
REMARK  Name = ligand_pdbs\FE.pdb
REMARK  0 active torsions:
REMARK  status: ('A' for Active; 'I' for Inactive)
REMARK                            x       y       z     vdW  Elec       q    Type
REMARK                         _______ _______ _______ _____ _____    ______ ____
ROOT
ATOM      1 FE   FE  A 201      23.615   9.805  -3.239  0.00  0.00    +0.000 Fe
ENDROOT
TORSDOF 0
ENDMDL
MODEL 4
REMARK VINA RESULT:      -1.1      7.125      7.125
REMARK  Name = ligand_pdbs\FE.pdb
REMARK  0 active torsions:
REMARK  status: ('A' for Active; 'I' for Inactive)
REMARK                            x       y       z     vdW  Elec       q    Type
REMARK                         _______ _______ _______ _____ _____    ______ ____
ROOT
ATOM      1 FE   FE  A 201      15.399   4.633   3.558  0.00  0.00    +0.000 Fe
ENDROOT
TORSDOF 0
ENDMDL
MODEL 5
REMARK VINA RESULT:      -1.1     14.906     14.906
REMARK  Name = ligand_pdbs\FE.pdb
REMARK  0 active torsions:
REMARK  status: ('A' for Active; 'I' for Inactive)
REMARK                            x       y       z     vdW  Elec       q    Type
REMARK                         _______ _______ _______ _____ _____    ______ ____
ROOT
ATOM      1 FE   FE  A 201      31.320   0.526   1.926  0.00  0.00    +0.000 Fe
ENDROOT
TORSDOF 0
ENDMDL
MODEL 6
REMARK VINA RESULT:      -1.1     12.815     12.815
REMARK  Name = ligand_pdbs\FE.pdb
REMARK  0 active torsions:
REMARK  status: ('A' for Active; 'I' for Inactive)
REMARK                            x       y       z     vdW  Elec       q    Type
REMARK                         _______ _______ _______ _____ _____    ______ ____
ROOT
ATOM      1 FE   FE  A 201      27.414  12.418  10.235  0.00  0.00    +0.000 Fe
ENDROOT
TORSDOF 0
ENDMDL
MODEL 7
REMARK VINA RESULT:      -1.0      6.948      6.948
REMARK  Name = ligand_pdbs\FE.pdb
REMARK  0 active torsions:
REMARK  status: ('A' for Active; 'I' for Inactive)
REMARK                            x       y       z     vdW  Elec       q    Type
REMARK                         _______ _______ _______ _____ _____    ______ ____
ROOT
ATOM      1 FE   FE  A 201      25.723  10.858   3.445  0.00  0.00    +0.000 Fe
ENDROOT
TORSDOF 0
ENDMDL
MODEL 8
REMARK VINA RESULT:      -1.0     16.215     16.215
REMARK  Name = ligand_pdbs\FE.pdb
REMARK  0 active torsions:
REMARK  status: ('A' for Active; 'I' for Inactive)
REMARK                            x       y       z     vdW  Elec       q    Type
REMARK                         _______ _______ _______ _____ _____    ______ ____
ROOT
ATOM      1 FE   FE  A 201      27.188  -3.938   5.243  0.00  0.00    +0.000 Fe
ENDROOT
TORSDOF 0
ENDMDL
MODEL 9
REMARK VINA RESULT:      -1.0      7.202      7.202
REMARK  Name = ligand_pdbs\FE.pdb
REMARK  0 active torsions:
REMARK  status: ('A' for Active; 'I' for Inactive)
REMARK                            x       y       z     vdW  Elec       q    Type
REMARK                         _______ _______ _______ _____ _____    ______ ____
ROOT
ATOM      1 FE   FE  A 201      24.668  10.579   5.492  0.00  0.00    +0.000 Fe
ENDROOT
TORSDOF 0
ENDMDL
