MODEL 1
REMARK VINA RESULT:      -7.5      0.000      0.000
REMARK  Name = ligand_pdbs\FHM.pdb
REMARK  7 active torsions:
REMARK  status: ('A' for Active; 'I' for Inactive)
REMARK    1  A    between atoms: C16_7  and  O14_8
REMARK    2  A    between atoms: O14_8  and  C13_9
REMARK    3  A    between atoms: C13_9  and  C11_10
REMARK    4  A    between atoms: C11_10  and  C10_13
REMARK    5  A    between atoms: N9_15  and  C6_16
REMARK    6  A    between atoms: C3_20  and  N8_21
REMARK    7  A    between atoms: C4_24  and  C7_25
REMARK                            x       y       z     vdW  Elec       q    Type
REMARK                         _______ _______ _______ _____ _____    ______ ____
ROOT
ATOM      1  C10 FHM A   1      28.772   1.920   6.106  0.00  0.00    +0.000 C 
ATOM      2  O10 FHM A   1      27.961   1.944   7.030  0.00  0.00    +0.000 OA
ATOM      3  N9  FHM A   1      28.743   2.723   5.044  0.00  0.00    +0.000 NA
ENDROOT
BRANCH   3   4
ATOM      4  C6  FHM A   1      27.858   3.694   4.815  0.00  0.00    +0.000 A 
ATOM      5  C5  FHM A   1      26.484   3.529   4.968  0.00  0.00    +0.000 A 
ATOM      6  C1  FHM A   1      28.342   4.958   4.494  0.00  0.00    +0.000 A 
ATOM      7  C2  FHM A   1      27.453   6.019   4.347  0.00  0.00    +0.000 A 
ATOM      8  C3  FHM A   1      26.082   5.849   4.522  0.00  0.00    +0.000 A 
ATOM      9  C4  FHM A   1      25.575   4.581   4.827  0.00  0.00    +0.000 A 
BRANCH   9  10
ATOM     10  C7  FHM A   1      24.073   4.292   5.003  0.00  0.00    +0.000 C 
ATOM     11  F2  FHM A   1      23.805   3.999   6.273  0.00  0.00    +0.000 F 
ATOM     12  F3  FHM A   1      23.302   5.312   4.632  0.00  0.00    +0.000 F 
ATOM     13  F1  FHM A   1      23.669   3.262   4.267  0.00  0.00    +0.000 F 
ENDBRANCH   9  10
BRANCH   8  14
ATOM     14  N8  FHM A   1      25.333   6.946   4.405  0.00  0.00    +0.000 N 
ATOM     15  O2  FHM A   1      25.038   7.806   5.495  0.00  0.00    +0.000 OA
ATOM     16  O1  FHM A   1      24.885   7.355   3.119  0.00  0.00    +0.000 OA
ENDBRANCH   8  14
ENDBRANCH   3   4
BRANCH   1  17
ATOM     17  C11 FHM A   1      29.922   0.909   6.106  0.00  0.00    +0.000 C 
ATOM     18  O11 FHM A   1      29.796   0.042   7.235  0.00  0.00    +0.000 OA
ATOM     19  C12 FHM A   1      31.264   1.643   6.158  0.00  0.00    +0.000 C 
BRANCH  17  20
ATOM     20  C13 FHM A   1      29.840   0.078   4.835  0.00  0.00    +0.000 C 
BRANCH  20  21
ATOM     21  O14 FHM A   1      28.679  -0.764   4.924  0.00  0.00    +0.000 OA
BRANCH  21  28
ATOM     22  C17 FHM A   1      26.325  -0.231   4.893  0.00  0.00    +0.000 A 
ATOM     23  C18 FHM A   1      25.229   0.281   4.202  0.00  0.00    +0.000 A 
ATOM     24  C19 FHM A   1      25.376   0.731   2.893  0.00  0.00    +0.000 A 
ATOM     25  F19 FHM A   1      24.316   1.233   2.226  0.00  0.00    +0.000 F 
ATOM     26  C20 FHM A   1      26.621   0.665   2.276  0.00  0.00    +0.000 A 
ATOM     27  C21 FHM A   1      27.715   0.153   2.969  0.00  0.00    +0.000 A 
ATOM     28  C16 FHM A   1      27.575  -0.296   4.279  0.00  0.00    +0.000 A 
ENDBRANCH  21  28
ENDBRANCH  20  21
ENDBRANCH  17  20
ENDBRANCH   1  17
TORSDOF 7
ENDMDL
MODEL 2
REMARK VINA RESULT:      -7.4      1.814      3.453
REMARK  Name = ligand_pdbs\FHM.pdb
REMARK  7 active torsions:
REMARK  status: ('A' for Active; 'I' for Inactive)
REMARK    1  A    between atoms: C16_7  and  O14_8
REMARK    2  A    between atoms: O14_8  and  C13_9
REMARK    3  A    between atoms: C13_9  and  C11_10
REMARK    4  A    between atoms: C11_10  and  C10_13
REMARK    5  A    between atoms: N9_15  and  C6_16
REMARK    6  A    between atoms: C3_20  and  N8_21
REMARK    7  A    between atoms: C4_24  and  C7_25
REMARK                            x       y       z     vdW  Elec       q    Type
REMARK                         _______ _______ _______ _____ _____    ______ ____
ROOT
ATOM      1  C10 FHM A   1      26.943   0.166   3.481  0.00  0.00    +0.000 C 
ATOM      2  O10 FHM A   1      25.839   0.055   4.011  0.00  0.00    +0.000 OA
ATOM      3  N9  FHM A   1      27.517   1.322   3.150  0.00  0.00    +0.000 NA
ENDROOT
BRANCH   3   4
ATOM      4  C6  FHM A   1      27.014   2.538   3.357  0.00  0.00    +0.000 A 
ATOM      5  C5  FHM A   1      25.723   2.762   3.831  0.00  0.00    +0.000 A 
ATOM      6  C1  FHM A   1      27.851   3.634   3.174  0.00  0.00    +0.000 A 
ATOM      7  C2  FHM A   1      27.391   4.912   3.476  0.00  0.00    +0.000 A 
ATOM      8  C3  FHM A   1      26.105   5.124   3.969  0.00  0.00    +0.000 A 
ATOM      9  C4  FHM A   1      25.242   4.036   4.142  0.00  0.00    +0.000 A 
BRANCH   9  10
ATOM     10  C7  FHM A   1      23.794   4.180   4.647  0.00  0.00    +0.000 C 
ATOM     11  F2  FHM A   1      23.786   4.531   5.931  0.00  0.00    +0.000 F 
ATOM     12  F3  FHM A   1      23.092   5.077   3.959  0.00  0.00    +0.000 F 
ATOM     13  F1  FHM A   1      23.111   3.044   4.544  0.00  0.00    +0.000 F 
ENDBRANCH   9  10
BRANCH   8  14
ATOM     14  N8  FHM A   1      25.791   6.385   4.271  0.00  0.00    +0.000 N 
ATOM     15  O2  FHM A   1      26.198   7.021   5.473  0.00  0.00    +0.000 OA
ATOM     16  O1  FHM A   1      25.109   7.185   3.315  0.00  0.00    +0.000 OA
ENDBRANCH   8  14
ENDBRANCH   3   4
BRANCH   1  17
ATOM     17  C11 FHM A   1      27.771  -1.075   3.137  0.00  0.00    +0.000 C 
ATOM     18  O11 FHM A   1      27.638  -1.367   1.744  0.00  0.00    +0.000 OA
ATOM     19  C12 FHM A   1      27.294  -2.269   3.968  0.00  0.00    +0.000 C 
BRANCH  17  20
ATOM     20  C13 FHM A   1      29.232  -0.787   3.443  0.00  0.00    +0.000 C 
BRANCH  20  21
ATOM     21  O14 FHM A   1      29.398  -0.777   4.870  0.00  0.00    +0.000 OA
BRANCH  21  28
ATOM     22  C17 FHM A   1      30.336   1.421   5.211  0.00  0.00    +0.000 A 
ATOM     23  C18 FHM A   1      30.241   2.677   5.805  0.00  0.00    +0.000 A 
ATOM     24  C19 FHM A   1      29.169   2.974   6.642  0.00  0.00    +0.000 A 
ATOM     25  F19 FHM A   1      29.072   4.193   7.212  0.00  0.00    +0.000 F 
ATOM     26  C20 FHM A   1      28.195   2.011   6.885  0.00  0.00    +0.000 A 
ATOM     27  C21 FHM A   1      28.292   0.757   6.289  0.00  0.00    +0.000 A 
ATOM     28  C16 FHM A   1      29.360   0.454   5.449  0.00  0.00    +0.000 A 
ENDBRANCH  21  28
ENDBRANCH  20  21
ENDBRANCH  17  20
ENDBRANCH   1  17
TORSDOF 7
ENDMDL
MODEL 3
REMARK VINA RESULT:      -6.8      4.216      8.593
REMARK  Name = ligand_pdbs\FHM.pdb
REMARK  7 active torsions:
REMARK  status: ('A' for Active; 'I' for Inactive)
REMARK    1  A    between atoms: C16_7  and  O14_8
REMARK    2  A    between atoms: O14_8  and  C13_9
REMARK    3  A    between atoms: C13_9  and  C11_10
REMARK    4  A    between atoms: C11_10  and  C10_13
REMARK    5  A    between atoms: N9_15  and  C6_16
REMARK    6  A    between atoms: C3_20  and  N8_21
REMARK    7  A    between atoms: C4_24  and  C7_25
REMARK                            x       y       z     vdW  Elec       q    Type
REMARK                         _______ _______ _______ _____ _____    ______ ____
ROOT
ATOM      1  C10 FHM A   1      26.301   6.806   5.203  0.00  0.00    +0.000 C 
ATOM      2  O10 FHM A   1      27.514   6.924   5.367  0.00  0.00    +0.000 OA
ATOM      3  N9  FHM A   1      25.655   5.645   5.096  0.00  0.00    +0.000 NA
ENDROOT
BRANCH   3   4
ATOM      4  C6  FHM A   1      26.200   4.431   5.175  0.00  0.00    +0.000 A 
ATOM      5  C5  FHM A   1      26.086   3.474   4.170  0.00  0.00    +0.000 A 
ATOM      6  C1  FHM A   1      26.995   4.141   6.279  0.00  0.00    +0.000 A 
ATOM      7  C2  FHM A   1      27.660   2.920   6.347  0.00  0.00    +0.000 A 
ATOM      8  C3  FHM A   1      27.557   1.977   5.327  0.00  0.00    +0.000 A 
ATOM      9  C4  FHM A   1      26.747   2.245   4.218  0.00  0.00    +0.000 A 
BRANCH   9  10
ATOM     10  C7  FHM A   1      26.546   1.248   3.061  0.00  0.00    +0.000 C 
ATOM     11  F2  FHM A   1      27.723   0.833   2.599  0.00  0.00    +0.000 F 
ATOM     12  F3  FHM A   1      25.830   0.183   3.413  0.00  0.00    +0.000 F 
ATOM     13  F1  FHM A   1      25.890   1.789   2.040  0.00  0.00    +0.000 F 
ENDBRANCH   9  10
BRANCH   8  14
ATOM     14  N8  FHM A   1      28.278   0.866   5.478  0.00  0.00    +0.000 N 
ATOM     15  O2  FHM A   1      27.702  -0.408   5.721  0.00  0.00    +0.000 OA
ATOM     16  O1  FHM A   1      29.686   0.913   5.287  0.00  0.00    +0.000 OA
ENDBRANCH   8  14
ENDBRANCH   3   4
BRANCH   1  17
ATOM     17  C11 FHM A   1      25.405   8.042   5.092  0.00  0.00    +0.000 C 
ATOM     18  O11 FHM A   1      24.090   7.646   4.696  0.00  0.00    +0.000 OA
ATOM     19  C12 FHM A   1      25.987   9.020   4.068  0.00  0.00    +0.000 C 
BRANCH  17  20
ATOM     20  C13 FHM A   1      25.327   8.711   6.455  0.00  0.00    +0.000 C 
BRANCH  20  21
ATOM     21  O14 FHM A   1      24.126   9.499   6.500  0.00  0.00    +0.000 OA
BRANCH  21  28
ATOM     22  C17 FHM A   1      23.816  11.758   7.294  0.00  0.00    +0.000 A 
ATOM     23  C18 FHM A   1      23.736  12.642   8.367  0.00  0.00    +0.000 A 
ATOM     24  C19 FHM A   1      23.904  12.179   9.669  0.00  0.00    +0.000 A 
ATOM     25  F19 FHM A   1      23.820  13.034  10.709  0.00  0.00    +0.000 F 
ATOM     26  C20 FHM A   1      24.156  10.829   9.894  0.00  0.00    +0.000 A 
ATOM     27  C21 FHM A   1      24.236   9.947   8.819  0.00  0.00    +0.000 A 
ATOM     28  C16 FHM A   1      24.065  10.405   7.515  0.00  0.00    +0.000 A 
ENDBRANCH  21  28
ENDBRANCH  20  21
ENDBRANCH  17  20
ENDBRANCH   1  17
TORSDOF 7
ENDMDL
MODEL 4
REMARK VINA RESULT:      -6.7      1.849      2.272
REMARK  Name = ligand_pdbs\FHM.pdb
REMARK  7 active torsions:
REMARK  status: ('A' for Active; 'I' for Inactive)
REMARK    1  A    between atoms: C16_7  and  O14_8
REMARK    2  A    between atoms: O14_8  and  C13_9
REMARK    3  A    between atoms: C13_9  and  C11_10
REMARK    4  A    between atoms: C11_10  and  C10_13
REMARK    5  A    between atoms: N9_15  and  C6_16
REMARK    6  A    between atoms: C3_20  and  N8_21
REMARK    7  A    between atoms: C4_24  and  C7_25
REMARK                            x       y       z     vdW  Elec       q    Type
REMARK                         _______ _______ _______ _____ _____    ______ ____
ROOT
ATOM      1  C10 FHM A   1      29.316   1.657   5.981  0.00  0.00    +0.000 C 
ATOM      2  O10 FHM A   1      29.972   2.592   5.524  0.00  0.00    +0.000 OA
ATOM      3  N9  FHM A   1      28.002   1.683   6.200  0.00  0.00    +0.000 NA
ENDROOT
BRANCH   3   4
ATOM      4  C6  FHM A   1      27.180   2.700   5.940  0.00  0.00    +0.000 A 
ATOM      5  C5  FHM A   1      27.453   3.681   4.990  0.00  0.00    +0.000 A 
ATOM      6  C1  FHM A   1      25.951   2.731   6.589  0.00  0.00    +0.000 A 
ATOM      7  C2  FHM A   1      25.027   3.722   6.269  0.00  0.00    +0.000 A 
ATOM      8  C3  FHM A   1      25.302   4.687   5.303  0.00  0.00    +0.000 A 
ATOM      9  C4  FHM A   1      26.540   4.683   4.653  0.00  0.00    +0.000 A 
BRANCH   9  10
ATOM     10  C7  FHM A   1      26.943   5.731   3.599  0.00  0.00    +0.000 C 
ATOM     11  F2  FHM A   1      27.272   6.877   4.189  0.00  0.00    +0.000 F 
ATOM     12  F3  FHM A   1      27.963   5.338   2.840  0.00  0.00    +0.000 F 
ATOM     13  F1  FHM A   1      25.955   5.994   2.749  0.00  0.00    +0.000 F 
ENDBRANCH   9  10
BRANCH   8  14
ATOM     14  N8  FHM A   1      24.323   5.556   5.045  0.00  0.00    +0.000 N 
ATOM     15  O2  FHM A   1      24.470   6.960   5.193  0.00  0.00    +0.000 OA
ATOM     16  O1  FHM A   1      23.099   5.089   4.495  0.00  0.00    +0.000 OA
ENDBRANCH   8  14
ENDBRANCH   3   4
BRANCH   1  17
ATOM     17  C11 FHM A   1      29.996   0.339   6.360  0.00  0.00    +0.000 C 
ATOM     18  O11 FHM A   1      29.201  -0.348   7.328  0.00  0.00    +0.000 OA
ATOM     19  C12 FHM A   1      31.390   0.614   6.929  0.00  0.00    +0.000 C 
BRANCH  17  20
ATOM     20  C13 FHM A   1      30.111  -0.525   5.114  0.00  0.00    +0.000 C 
BRANCH  20  21
ATOM     21  O14 FHM A   1      28.906  -1.298   4.992  0.00  0.00    +0.000 OA
BRANCH  21  28
ATOM     22  C17 FHM A   1      26.575  -0.730   4.725  0.00  0.00    +0.000 A 
ATOM     23  C18 FHM A   1      25.584  -0.076   3.996  0.00  0.00    +0.000 A 
ATOM     24  C19 FHM A   1      25.914   0.615   2.833  0.00  0.00    +0.000 A 
ATOM     25  F19 FHM A   1      24.956   1.253   2.130  0.00  0.00    +0.000 F 
ATOM     26  C20 FHM A   1      27.236   0.647   2.401  0.00  0.00    +0.000 A 
ATOM     27  C21 FHM A   1      28.224  -0.006   3.132  0.00  0.00    +0.000 A 
ATOM     28  C16 FHM A   1      27.901  -0.697   4.297  0.00  0.00    +0.000 A 
ENDBRANCH  21  28
ENDBRANCH  20  21
ENDBRANCH  17  20
ENDBRANCH   1  17
TORSDOF 7
ENDMDL
MODEL 5
REMARK VINA RESULT:      -6.6      4.577      8.683
REMARK  Name = ligand_pdbs\FHM.pdb
REMARK  7 active torsions:
REMARK  status: ('A' for Active; 'I' for Inactive)
REMARK    1  A    between atoms: C16_7  and  O14_8
REMARK    2  A    between atoms: O14_8  and  C13_9
REMARK    3  A    between atoms: C13_9  and  C11_10
REMARK    4  A    between atoms: C11_10  and  C10_13
REMARK    5  A    between atoms: N9_15  and  C6_16
REMARK    6  A    between atoms: C3_20  and  N8_21
REMARK    7  A    between atoms: C4_24  and  C7_25
REMARK                            x       y       z     vdW  Elec       q    Type
REMARK                         _______ _______ _______ _____ _____    ______ ____
ROOT
ATOM      1  C10 FHM A   1      26.474   6.861   4.984  0.00  0.00    +0.000 C 
ATOM      2  O10 FHM A   1      27.600   7.053   5.440  0.00  0.00    +0.000 OA
ATOM      3  N9  FHM A   1      26.046   5.709   4.469  0.00  0.00    +0.000 NA
ENDROOT
BRANCH   3   4
ATOM      4  C6  FHM A   1      26.744   4.577   4.387  0.00  0.00    +0.000 A 
ATOM      5  C5  FHM A   1      27.759   4.237   5.277  0.00  0.00    +0.000 A 
ATOM      6  C1  FHM A   1      26.377   3.651   3.416  0.00  0.00    +0.000 A 
ATOM      7  C2  FHM A   1      27.017   2.416   3.364  0.00  0.00    +0.000 A 
ATOM      8  C3  FHM A   1      28.019   2.078   4.271  0.00  0.00    +0.000 A 
ATOM      9  C4  FHM A   1      28.413   3.003   5.244  0.00  0.00    +0.000 A 
BRANCH   9  10
ATOM     10  C7  FHM A   1      29.534   2.728   6.264  0.00  0.00    +0.000 C 
ATOM     11  F2  FHM A   1      29.510   3.641   7.232  0.00  0.00    +0.000 F 
ATOM     12  F3  FHM A   1      29.447   1.521   6.818  0.00  0.00    +0.000 F 
ATOM     13  F1  FHM A   1      30.741   2.774   5.708  0.00  0.00    +0.000 F 
ENDBRANCH   9  10
BRANCH   8  14
ATOM     14  N8  FHM A   1      28.525   0.849   4.156  0.00  0.00    +0.000 N 
ATOM     15  O2  FHM A   1      27.944  -0.292   4.769  0.00  0.00    +0.000 OA
ATOM     16  O1  FHM A   1      29.638   0.627   3.300  0.00  0.00    +0.000 OA
ENDBRANCH   8  14
ENDBRANCH   3   4
BRANCH   1  17
ATOM     17  C11 FHM A   1      25.439   7.989   4.962  0.00  0.00    +0.000 C 
ATOM     18  O11 FHM A   1      24.165   7.461   4.584  0.00  0.00    +0.000 OA
ATOM     19  C12 FHM A   1      25.868   9.075   3.974  0.00  0.00    +0.000 C 
BRANCH  17  20
ATOM     20  C13 FHM A   1      25.332   8.579   6.359  0.00  0.00    +0.000 C 
BRANCH  20  21
ATOM     21  O14 FHM A   1      24.177   9.433   6.398  0.00  0.00    +0.000 OA
BRANCH  21  28
ATOM     22  C17 FHM A   1      23.813  11.655   7.268  0.00  0.00    +0.000 A 
ATOM     23  C18 FHM A   1      23.762  12.511   8.366  0.00  0.00    +0.000 A 
ATOM     24  C19 FHM A   1      24.040  12.027   9.642  0.00  0.00    +0.000 A 
ATOM     25  F19 FHM A   1      23.985  12.854  10.707  0.00  0.00    +0.000 F 
ATOM     26  C20 FHM A   1      24.371  10.687   9.815  0.00  0.00    +0.000 A 
ATOM     27  C21 FHM A   1      24.420   9.835   8.716  0.00  0.00    +0.000 A 
ATOM     28  C16 FHM A   1      24.141  10.311   7.438  0.00  0.00    +0.000 A 
ENDBRANCH  21  28
ENDBRANCH  20  21
ENDBRANCH  17  20
ENDBRANCH   1  17
TORSDOF 7
ENDMDL
MODEL 6
REMARK VINA RESULT:      -6.4      2.528      4.195
REMARK  Name = ligand_pdbs\FHM.pdb
REMARK  7 active torsions:
REMARK  status: ('A' for Active; 'I' for Inactive)
REMARK    1  A    between atoms: C16_7  and  O14_8
REMARK    2  A    between atoms: O14_8  and  C13_9
REMARK    3  A    between atoms: C13_9  and  C11_10
REMARK    4  A    between atoms: C11_10  and  C10_13
REMARK    5  A    between atoms: N9_15  and  C6_16
REMARK    6  A    between atoms: C3_20  and  N8_21
REMARK    7  A    between atoms: C4_24  and  C7_25
REMARK                            x       y       z     vdW  Elec       q    Type
REMARK                         _______ _______ _______ _____ _____    ______ ____
ROOT
ATOM      1  C10 FHM A   1      26.714  -0.694   4.309  0.00  0.00    +0.000 C 
ATOM      2  O10 FHM A   1      26.376  -0.735   5.491  0.00  0.00    +0.000 OA
ATOM      3  N9  FHM A   1      26.564   0.359   3.508  0.00  0.00    +0.000 NA
ENDROOT
BRANCH   3   4
ATOM      4  C6  FHM A   1      26.053   1.542   3.850  0.00  0.00    +0.000 A 
ATOM      5  C5  FHM A   1      26.679   2.755   3.575  0.00  0.00    +0.000 A 
ATOM      6  C1  FHM A   1      24.790   1.565   4.432  0.00  0.00    +0.000 A 
ATOM      7  C2  FHM A   1      24.182   2.786   4.712  0.00  0.00    +0.000 A 
ATOM      8  C3  FHM A   1      24.808   3.994   4.414  0.00  0.00    +0.000 A 
ATOM      9  C4  FHM A   1      26.086   3.990   3.846  0.00  0.00    +0.000 A 
BRANCH   9  10
ATOM     10  C7  FHM A   1      26.867   5.277   3.516  0.00  0.00    +0.000 C 
ATOM     11  F2  FHM A   1      26.104   6.113   2.817  0.00  0.00    +0.000 F 
ATOM     12  F3  FHM A   1      27.305   5.910   4.602  0.00  0.00    +0.000 F 
ATOM     13  F1  FHM A   1      27.953   5.033   2.790  0.00  0.00    +0.000 F 
ENDBRANCH   9  10
BRANCH   8  14
ATOM     14  N8  FHM A   1      24.109   5.099   4.681  0.00  0.00    +0.000 N 
ATOM     15  O2  FHM A   1      24.673   6.245   5.300  0.00  0.00    +0.000 OA
ATOM     16  O1  FHM A   1      22.762   5.200   4.239  0.00  0.00    +0.000 OA
ENDBRANCH   8  14
ENDBRANCH   3   4
BRANCH   1  17
ATOM     17  C11 FHM A   1      27.354  -1.914   3.640  0.00  0.00    +0.000 C 
ATOM     18  O11 FHM A   1      27.515  -1.662   2.242  0.00  0.00    +0.000 OA
ATOM     19  C12 FHM A   1      26.473  -3.148   3.849  0.00  0.00    +0.000 C 
BRANCH  17  20
ATOM     20  C13 FHM A   1      28.722  -2.149   4.259  0.00  0.00    +0.000 C 
BRANCH  20  21
ATOM     21  O14 FHM A   1      29.613  -1.129   3.778  0.00  0.00    +0.000 OA
BRANCH  21  28
ATOM     22  C17 FHM A   1      29.745   1.263   4.080  0.00  0.00    +0.000 A 
ATOM     23  C18 FHM A   1      29.842   2.350   4.945  0.00  0.00    +0.000 A 
ATOM     24  C19 FHM A   1      29.926   2.144   6.319  0.00  0.00    +0.000 A 
ATOM     25  F19 FHM A   1      30.013   3.197   7.158  0.00  0.00    +0.000 F 
ATOM     26  C20 FHM A   1      29.917   0.848   6.825  0.00  0.00    +0.000 A 
ATOM     27  C21 FHM A   1      29.820  -0.237   5.958  0.00  0.00    +0.000 A 
ATOM     28  C16 FHM A   1      29.732  -0.037   4.583  0.00  0.00    +0.000 A 
ENDBRANCH  21  28
ENDBRANCH  20  21
ENDBRANCH  17  20
ENDBRANCH   1  17
TORSDOF 7
ENDMDL
MODEL 7
REMARK VINA RESULT:      -6.2      2.546      4.227
REMARK  Name = ligand_pdbs\FHM.pdb
REMARK  7 active torsions:
REMARK  status: ('A' for Active; 'I' for Inactive)
REMARK    1  A    between atoms: C16_7  and  O14_8
REMARK    2  A    between atoms: O14_8  and  C13_9
REMARK    3  A    between atoms: C13_9  and  C11_10
REMARK    4  A    between atoms: C11_10  and  C10_13
REMARK    5  A    between atoms: N9_15  and  C6_16
REMARK    6  A    between atoms: C3_20  and  N8_21
REMARK    7  A    between atoms: C4_24  and  C7_25
REMARK                            x       y       z     vdW  Elec       q    Type
REMARK                         _______ _______ _______ _____ _____    ______ ____
ROOT
ATOM      1  C10 FHM A   1      27.160  -0.756   3.249  0.00  0.00    +0.000 C 
ATOM      2  O10 FHM A   1      27.251  -0.111   2.206  0.00  0.00    +0.000 OA
ATOM      3  N9  FHM A   1      26.476  -0.373   4.326  0.00  0.00    +0.000 NA
ENDROOT
BRANCH   3   4
ATOM      4  C6  FHM A   1      25.761   0.745   4.448  0.00  0.00    +0.000 A 
ATOM      5  C5  FHM A   1      26.007   1.709   5.423  0.00  0.00    +0.000 A 
ATOM      6  C1  FHM A   1      24.779   1.001   3.497  0.00  0.00    +0.000 A 
ATOM      7  C2  FHM A   1      24.081   2.205   3.533  0.00  0.00    +0.000 A 
ATOM      8  C3  FHM A   1      24.347   3.171   4.501  0.00  0.00    +0.000 A 
ATOM      9  C4  FHM A   1      25.319   2.924   5.476  0.00  0.00    +0.000 A 
BRANCH   9  10
ATOM     10  C7  FHM A   1      25.655   3.919   6.603  0.00  0.00    +0.000 C 
ATOM     11  F2  FHM A   1      26.128   5.052   6.092  0.00  0.00    +0.000 F 
ATOM     12  F3  FHM A   1      24.607   4.205   7.372  0.00  0.00    +0.000 F 
ATOM     13  F1  FHM A   1      26.580   3.444   7.433  0.00  0.00    +0.000 F 
ENDBRANCH   9  10
BRANCH   8  14
ATOM     14  N8  FHM A   1      23.651   4.305   4.407  0.00  0.00    +0.000 N 
ATOM     15  O2  FHM A   1      24.241   5.556   4.087  0.00  0.00    +0.000 OA
ATOM     16  O1  FHM A   1      22.235   4.269   4.523  0.00  0.00    +0.000 OA
ENDBRANCH   8  14
ENDBRANCH   3   4
BRANCH   1  17
ATOM     17  C11 FHM A   1      27.870  -2.105   3.396  0.00  0.00    +0.000 C 
ATOM     18  O11 FHM A   1      28.115  -2.659   2.101  0.00  0.00    +0.000 OA
ATOM     19  C12 FHM A   1      27.007  -3.064   4.219  0.00  0.00    +0.000 C 
BRANCH  17  20
ATOM     20  C13 FHM A   1      29.201  -1.882   4.095  0.00  0.00    +0.000 C 
BRANCH  20  21
ATOM     21  O14 FHM A   1      29.731  -0.619   3.660  0.00  0.00    +0.000 OA
BRANCH  21  28
ATOM     22  C17 FHM A   1      29.903   0.144   5.944  0.00  0.00    +0.000 A 
ATOM     23  C18 FHM A   1      29.876   1.200   6.852  0.00  0.00    +0.000 A 
ATOM     24  C19 FHM A   1      29.633   2.497   6.408  0.00  0.00    +0.000 A 
ATOM     25  F19 FHM A   1      29.613   3.521   7.286  0.00  0.00    +0.000 F 
ATOM     26  C20 FHM A   1      29.414   2.734   5.054  0.00  0.00    +0.000 A 
ATOM     27  C21 FHM A   1      29.442   1.676   4.149  0.00  0.00    +0.000 A 
ATOM     28  C16 FHM A   1      29.687   0.378   4.587  0.00  0.00    +0.000 A 
ENDBRANCH  21  28
ENDBRANCH  20  21
ENDBRANCH  17  20
ENDBRANCH   1  17
TORSDOF 7
ENDMDL
MODEL 8
REMARK VINA RESULT:      -6.0      1.500      1.767
REMARK  Name = ligand_pdbs\FHM.pdb
REMARK  7 active torsions:
REMARK  status: ('A' for Active; 'I' for Inactive)
REMARK    1  A    between atoms: C16_7  and  O14_8
REMARK    2  A    between atoms: O14_8  and  C13_9
REMARK    3  A    between atoms: C13_9  and  C11_10
REMARK    4  A    between atoms: C11_10  and  C10_13
REMARK    5  A    between atoms: N9_15  and  C6_16
REMARK    6  A    between atoms: C3_20  and  N8_21
REMARK    7  A    between atoms: C4_24  and  C7_25
REMARK                            x       y       z     vdW  Elec       q    Type
REMARK                         _______ _______ _______ _____ _____    ______ ____
ROOT
ATOM      1  C10 FHM A   1      28.897   2.458   5.889  0.00  0.00    +0.000 C 
ATOM      2  O10 FHM A   1      28.072   2.320   6.791  0.00  0.00    +0.000 OA
ATOM      3  N9  FHM A   1      28.796   3.334   4.891  0.00  0.00    +0.000 NA
ENDROOT
BRANCH   3   4
ATOM      4  C6  FHM A   1      27.812   4.216   4.714  0.00  0.00    +0.000 A 
ATOM      5  C5  FHM A   1      26.463   3.871   4.732  0.00  0.00    +0.000 A 
ATOM      6  C1  FHM A   1      28.151   5.559   4.594  0.00  0.00    +0.000 A 
ATOM      7  C2  FHM A   1      27.146   6.518   4.508  0.00  0.00    +0.000 A 
ATOM      8  C3  FHM A   1      25.799   6.166   4.547  0.00  0.00    +0.000 A 
ATOM      9  C4  FHM A   1      25.439   4.818   4.649  0.00  0.00    +0.000 A 
BRANCH   9  10
ATOM     10  C7  FHM A   1      23.977   4.334   4.664  0.00  0.00    +0.000 C 
ATOM     11  F2  FHM A   1      23.476   4.416   5.894  0.00  0.00    +0.000 F 
ATOM     12  F3  FHM A   1      23.193   5.025   3.840  0.00  0.00    +0.000 F 
ATOM     13  F1  FHM A   1      23.863   3.067   4.276  0.00  0.00    +0.000 F 
ENDBRANCH   9  10
BRANCH   8  14
ATOM     14  N8  FHM A   1      24.926   7.174   4.507  0.00  0.00    +0.000 N 
ATOM     15  O2  FHM A   1      24.591   7.957   5.643  0.00  0.00    +0.000 OA
ATOM     16  O1  FHM A   1      24.370   7.570   3.261  0.00  0.00    +0.000 OA
ENDBRANCH   8  14
ENDBRANCH   3   4
BRANCH   1  17
ATOM     17  C11 FHM A   1      30.153   1.584   5.842  0.00  0.00    +0.000 C 
ATOM     18  O11 FHM A   1      30.007   0.488   6.748  0.00  0.00    +0.000 OA
ATOM     19  C12 FHM A   1      31.382   2.413   6.221  0.00  0.00    +0.000 C 
BRANCH  17  20
ATOM     20  C13 FHM A   1      30.315   1.039   4.432  0.00  0.00    +0.000 C 
BRANCH  20  21
ATOM     21  O14 FHM A   1      29.016   0.985   3.820  0.00  0.00    +0.000 OA
BRANCH  21  28
ATOM     22  C17 FHM A   1      27.017  -0.158   4.543  0.00  0.00    +0.000 A 
ATOM     23  C18 FHM A   1      26.332  -1.356   4.730  0.00  0.00    +0.000 A 
ATOM     24  C19 FHM A   1      26.945  -2.567   4.420  0.00  0.00    +0.000 A 
ATOM     25  F19 FHM A   1      26.280  -3.728   4.595  0.00  0.00    +0.000 F 
ATOM     26  C20 FHM A   1      28.245  -2.576   3.925  0.00  0.00    +0.000 A 
ATOM     27  C21 FHM A   1      28.926  -1.376   3.738  0.00  0.00    +0.000 A 
ATOM     28  C16 FHM A   1      28.318  -0.162   4.044  0.00  0.00    +0.000 A 
ENDBRANCH  21  28
ENDBRANCH  20  21
ENDBRANCH  17  20
ENDBRANCH   1  17
TORSDOF 7
ENDMDL
MODEL 9
REMARK VINA RESULT:      -5.4      2.967      6.227
REMARK  Name = ligand_pdbs\FHM.pdb
REMARK  7 active torsions:
REMARK  status: ('A' for Active; 'I' for Inactive)
REMARK    1  A    between atoms: C16_7  and  O14_8
REMARK    2  A    between atoms: O14_8  and  C13_9
REMARK    3  A    between atoms: C13_9  and  C11_10
REMARK    4  A    between atoms: C11_10  and  C10_13
REMARK    5  A    between atoms: N9_15  and  C6_16
REMARK    6  A    between atoms: C3_20  and  N8_21
REMARK    7  A    between atoms: C4_24  and  C7_25
REMARK                            x       y       z     vdW  Elec       q    Type
REMARK                         _______ _______ _______ _____ _____    ______ ____
ROOT
ATOM      1  C10 FHM A   1      26.896   5.341   4.008  0.00  0.00    +0.000 C 
ATOM      2  O10 FHM A   1      26.849   5.113   2.800  0.00  0.00    +0.000 OA
ATOM      3  N9  FHM A   1      27.421   4.523   4.919  0.00  0.00    +0.000 NA
ENDROOT
BRANCH   3   4
ATOM      4  C6  FHM A   1      28.000   3.347   4.680  0.00  0.00    +0.000 A 
ATOM      5  C5  FHM A   1      28.744   2.653   5.630  0.00  0.00    +0.000 A 
ATOM      6  C1  FHM A   1      27.774   2.744   3.447  0.00  0.00    +0.000 A 
ATOM      7  C2  FHM A   1      28.279   1.472   3.198  0.00  0.00    +0.000 A 
ATOM      8  C3  FHM A   1      29.006   0.777   4.163  0.00  0.00    +0.000 A 
ATOM      9  C4  FHM A   1      29.259   1.374   5.403  0.00  0.00    +0.000 A 
BRANCH   9  10
ATOM     10  C7  FHM A   1      30.081   0.695   6.514  0.00  0.00    +0.000 C 
ATOM     11  F2  FHM A   1      30.517   1.603   7.385  0.00  0.00    +0.000 F 
ATOM     12  F3  FHM A   1      29.393  -0.231   7.176  0.00  0.00    +0.000 F 
ATOM     13  F1  FHM A   1      31.148   0.064   6.035  0.00  0.00    +0.000 F 
ENDBRANCH   9  10
BRANCH   8  14
ATOM     14  N8  FHM A   1      29.397  -0.454   3.830  0.00  0.00    +0.000 N 
ATOM     15  O2  FHM A   1      28.819  -1.629   4.379  0.00  0.00    +0.000 OA
ATOM     16  O1  FHM A   1      30.363  -0.629   2.803  0.00  0.00    +0.000 OA
ENDBRANCH   8  14
ENDBRANCH   3   4
BRANCH   1  17
ATOM     17  C11 FHM A   1      26.318   6.639   4.578  0.00  0.00    +0.000 C 
ATOM     18  O11 FHM A   1      25.666   7.370   3.537  0.00  0.00    +0.000 OA
ATOM     19  C12 FHM A   1      27.436   7.486   5.190  0.00  0.00    +0.000 C 
BRANCH  17  20
ATOM     20  C13 FHM A   1      25.295   6.289   5.648  0.00  0.00    +0.000 C 
BRANCH  20  21
ATOM     21  O14 FHM A   1      24.233   5.547   5.026  0.00  0.00    +0.000 OA
BRANCH  21  28
ATOM     22  C17 FHM A   1      24.132   3.426   3.878  0.00  0.00    +0.000 A 
ATOM     23  C18 FHM A   1      24.348   2.050   3.898  0.00  0.00    +0.000 A 
ATOM     24  C19 FHM A   1      24.835   1.436   5.048  0.00  0.00    +0.000 A 
ATOM     25  F19 FHM A   1      25.050   0.104   5.065  0.00  0.00    +0.000 F 
ATOM     26  C20 FHM A   1      25.103   2.201   6.178  0.00  0.00    +0.000 A 
ATOM     27  C21 FHM A   1      24.888   3.576   6.155  0.00  0.00    +0.000 A 
ATOM     28  C16 FHM A   1      24.403   4.197   5.008  0.00  0.00    +0.000 A 
ENDBRANCH  21  28
ENDBRANCH  20  21
ENDBRANCH  17  20
ENDBRANCH   1  17
TORSDOF 7
ENDMDL
