MODEL 1
REMARK VINA RESULT:      -4.1      0.000      0.000
REMARK  Name = ligand_pdbs\FME.pdb
REMARK  5 active torsions:
REMARK  status: ('A' for Active; 'I' for Inactive)
REMARK    1  A    between atoms: N_1  and  CA_4
REMARK    2  A    between atoms: CA_4  and  CB_5
REMARK    3  A    between atoms: CA_4  and  C_9
REMARK    4  A    between atoms: CB_5  and  CG_6
REMARK    5  A    between atoms: CG_6  and  SD_7
REMARK                            x       y       z     vdW  Elec       q    Type
REMARK                         _______ _______ _______ _____ _____    ______ ____
ROOT
ATOM      1  CA  FME M 503      26.068   5.507   4.584  0.00  0.00    +0.000 C 
ENDROOT
BRANCH   1   2
ATOM      2  N   FME M 503      24.541   5.444   4.745  0.00  0.00    +0.000 NA
ATOM      3  CN  FME M 503      23.445   4.687   4.601  0.00  0.00    +0.000 C 
ATOM      4  O1  FME M 503      23.243   3.485   4.306  0.00  0.00    +0.000 OA
ENDBRANCH   1   2
BRANCH   1   5
ATOM      5  C   FME M 503      26.568   6.883   4.955  0.00  0.00    +0.000 C 
ATOM      6  O   FME M 503      27.731   7.013   5.342  0.00  0.00    +0.000 OA
ENDBRANCH   1   5
BRANCH   1   7
ATOM      7  CB  FME M 503      26.931   4.821   3.492  0.00  0.00    +0.000 C 
BRANCH   7   8
ATOM      8  CG  FME M 503      27.610   3.504   3.936  0.00  0.00    +0.000 C 
BRANCH   8   9
ATOM      9  SD  FME M 503      28.021   3.353   5.653  0.00  0.00    +0.000 S 
ATOM     10  CE  FME M 503      28.241   1.692   6.077  0.00  0.00    +0.000 C 
ENDBRANCH   8   9
ENDBRANCH   7   8
ENDBRANCH   1   7
TORSDOF 5
ENDMDL
MODEL 2
REMARK VINA RESULT:      -4.0      1.520      1.728
REMARK  Name = ligand_pdbs\FME.pdb
REMARK  5 active torsions:
REMARK  status: ('A' for Active; 'I' for Inactive)
REMARK    1  A    between atoms: N_1  and  CA_4
REMARK    2  A    between atoms: CA_4  and  CB_5
REMARK    3  A    between atoms: CA_4  and  C_9
REMARK    4  A    between atoms: CB_5  and  CG_6
REMARK    5  A    between atoms: CG_6  and  SD_7
REMARK                            x       y       z     vdW  Elec       q    Type
REMARK                         _______ _______ _______ _____ _____    ______ ____
ROOT
ATOM      1  CA  FME M 503      26.263   3.980   3.991  0.00  0.00    +0.000 C 
ENDROOT
BRANCH   1   2
ATOM      2  N   FME M 503      25.101   4.795   4.578  0.00  0.00    +0.000 NA
ATOM      3  CN  FME M 503      23.769   4.908   4.679  0.00  0.00    +0.000 C 
ATOM      4  O1  FME M 503      22.801   4.191   4.330  0.00  0.00    +0.000 OA
ENDBRANCH   1   2
BRANCH   1   5
ATOM      5  C   FME M 503      27.326   4.912   3.457  0.00  0.00    +0.000 C 
ATOM      6  O   FME M 503      28.037   5.527   4.253  0.00  0.00    +0.000 OA
ENDBRANCH   1   5
BRANCH   1   7
ATOM      7  CB  FME M 503      26.178   2.644   3.207  0.00  0.00    +0.000 C 
BRANCH   7   8
ATOM      8  CG  FME M 503      27.404   1.716   3.376  0.00  0.00    +0.000 C 
BRANCH   8   9
ATOM      9  SD  FME M 503      27.953   1.404   5.032  0.00  0.00    +0.000 S 
ATOM     10  CE  FME M 503      29.383   2.312   5.374  0.00  0.00    +0.000 C 
ENDBRANCH   8   9
ENDBRANCH   7   8
ENDBRANCH   1   7
TORSDOF 5
ENDMDL
MODEL 3
REMARK VINA RESULT:      -4.0      3.324      4.387
REMARK  Name = ligand_pdbs\FME.pdb
REMARK  5 active torsions:
REMARK  status: ('A' for Active; 'I' for Inactive)
REMARK    1  A    between atoms: N_1  and  CA_4
REMARK    2  A    between atoms: CA_4  and  CB_5
REMARK    3  A    between atoms: CA_4  and  C_9
REMARK    4  A    between atoms: CB_5  and  CG_6
REMARK    5  A    between atoms: CG_6  and  SD_7
REMARK                            x       y       z     vdW  Elec       q    Type
REMARK                         _______ _______ _______ _____ _____    ______ ____
ROOT
ATOM      1  CA  FME M 503      27.636   3.813   4.153  0.00  0.00    +0.000 C 
ENDROOT
BRANCH   1   2
ATOM      2  N   FME M 503      27.549   2.321   3.796  0.00  0.00    +0.000 NA
ATOM      3  CN  FME M 503      28.243   1.198   3.561  0.00  0.00    +0.000 C 
ATOM      4  O1  FME M 503      29.453   0.881   3.653  0.00  0.00    +0.000 OA
ENDBRANCH   1   2
BRANCH   1   5
ATOM      5  C   FME M 503      27.660   3.982   5.654  0.00  0.00    +0.000 C 
ATOM      6  O   FME M 503      26.998   3.213   6.354  0.00  0.00    +0.000 OA
ENDBRANCH   1   5
BRANCH   1   7
ATOM      7  CB  FME M 503      26.955   4.999   3.420  0.00  0.00    +0.000 C 
BRANCH   7   8
ATOM      8  CG  FME M 503      26.415   6.110   4.351  0.00  0.00    +0.000 C 
BRANCH   8   9
ATOM      9  SD  FME M 503      24.654   6.275   4.466  0.00  0.00    +0.000 S 
ATOM     10  CE  FME M 503      23.932   4.759   4.875  0.00  0.00    +0.000 C 
ENDBRANCH   8   9
ENDBRANCH   7   8
ENDBRANCH   1   7
TORSDOF 5
ENDMDL
MODEL 4
REMARK VINA RESULT:      -3.9      1.457      3.088
REMARK  Name = ligand_pdbs\FME.pdb
REMARK  5 active torsions:
REMARK  status: ('A' for Active; 'I' for Inactive)
REMARK    1  A    between atoms: N_1  and  CA_4
REMARK    2  A    between atoms: CA_4  and  CB_5
REMARK    3  A    between atoms: CA_4  and  C_9
REMARK    4  A    between atoms: CB_5  and  CG_6
REMARK    5  A    between atoms: CG_6  and  SD_7
REMARK                            x       y       z     vdW  Elec       q    Type
REMARK                         _______ _______ _______ _____ _____    ______ ____
ROOT
ATOM      1  CA  FME M 503      25.320   4.836   4.309  0.00  0.00    +0.000 C 
ENDROOT
BRANCH   1   2
ATOM      2  N   FME M 503      26.196   6.009   4.775  0.00  0.00    +0.000 NA
ATOM      3  CN  FME M 503      26.207   7.279   5.204  0.00  0.00    +0.000 C 
ATOM      4  O1  FME M 503      25.317   8.101   5.528  0.00  0.00    +0.000 OA
ENDBRANCH   1   2
BRANCH   1   5
ATOM      5  C   FME M 503      23.944   4.946   4.923  0.00  0.00    +0.000 C 
ATOM      6  O   FME M 503      22.985   4.443   4.334  0.00  0.00    +0.000 OA
ENDBRANCH   1   5
BRANCH   1   7
ATOM      7  CB  FME M 503      25.761   3.368   4.064  0.00  0.00    +0.000 C 
BRANCH   7   8
ATOM      8  CG  FME M 503      27.219   3.204   3.577  0.00  0.00    +0.000 C 
BRANCH   8   9
ATOM      9  SD  FME M 503      28.380   2.528   4.733  0.00  0.00    +0.000 S 
ATOM     10  CE  FME M 503      28.275   3.355   6.247  0.00  0.00    +0.000 C 
ENDBRANCH   8   9
ENDBRANCH   7   8
ENDBRANCH   1   7
TORSDOF 5
ENDMDL
MODEL 5
REMARK VINA RESULT:      -3.9      1.935      2.390
REMARK  Name = ligand_pdbs\FME.pdb
REMARK  5 active torsions:
REMARK  status: ('A' for Active; 'I' for Inactive)
REMARK    1  A    between atoms: N_1  and  CA_4
REMARK    2  A    between atoms: CA_4  and  CB_5
REMARK    3  A    between atoms: CA_4  and  C_9
REMARK    4  A    between atoms: CB_5  and  CG_6
REMARK    5  A    between atoms: CG_6  and  SD_7
REMARK                            x       y       z     vdW  Elec       q    Type
REMARK                         _______ _______ _______ _____ _____    ______ ____
ROOT
ATOM      1  CA  FME M 503      27.118   4.487   5.690  0.00  0.00    +0.000 C 
ENDROOT
BRANCH   1   2
ATOM      2  N   FME M 503      25.614   4.229   5.505  0.00  0.00    +0.000 NA
ATOM      3  CN  FME M 503      24.444   4.750   5.112  0.00  0.00    +0.000 C 
ATOM      4  O1  FME M 503      24.104   5.824   4.562  0.00  0.00    +0.000 OA
ENDBRANCH   1   2
BRANCH   1   5
ATOM      5  C   FME M 503      27.598   5.489   4.667  0.00  0.00    +0.000 C 
ATOM      6  O   FME M 503      27.690   5.142   3.488  0.00  0.00    +0.000 OA
ENDBRANCH   1   5
BRANCH   1   7
ATOM      7  CB  FME M 503      28.209   3.459   6.092  0.00  0.00    +0.000 C 
BRANCH   7   8
ATOM      8  CG  FME M 503      27.912   2.002   5.667  0.00  0.00    +0.000 C 
BRANCH   8   9
ATOM      9  SD  FME M 503      28.187   1.590   3.965  0.00  0.00    +0.000 S 
ATOM     10  CE  FME M 503      26.722   1.746   3.062  0.00  0.00    +0.000 C 
ENDBRANCH   8   9
ENDBRANCH   7   8
ENDBRANCH   1   7
TORSDOF 5
ENDMDL
MODEL 6
REMARK VINA RESULT:      -3.9      3.127      4.884
REMARK  Name = ligand_pdbs\FME.pdb
REMARK  5 active torsions:
REMARK  status: ('A' for Active; 'I' for Inactive)
REMARK    1  A    between atoms: N_1  and  CA_4
REMARK    2  A    between atoms: CA_4  and  CB_5
REMARK    3  A    between atoms: CA_4  and  C_9
REMARK    4  A    between atoms: CB_5  and  CG_6
REMARK    5  A    between atoms: CG_6  and  SD_7
REMARK                            x       y       z     vdW  Elec       q    Type
REMARK                         _______ _______ _______ _____ _____    ______ ____
ROOT
ATOM      1  CA  FME M 503      27.694   3.801   4.717  0.00  0.00    +0.000 C 
ENDROOT
BRANCH   1   2
ATOM      2  N   FME M 503      28.507   3.201   5.875  0.00  0.00    +0.000 NA
ATOM      3  CN  FME M 503      29.652   2.600   6.227  0.00  0.00    +0.000 C 
ATOM      4  O1  FME M 503      30.724   2.340   5.629  0.00  0.00    +0.000 OA
ENDBRANCH   1   2
BRANCH   1   5
ATOM      5  C   FME M 503      27.605   2.807   3.582  0.00  0.00    +0.000 C 
ATOM      6  O   FME M 503      27.288   1.642   3.831  0.00  0.00    +0.000 OA
ENDBRANCH   1   5
BRANCH   1   7
ATOM      7  CB  FME M 503      27.685   5.275   4.235  0.00  0.00    +0.000 C 
BRANCH   7   8
ATOM      8  CG  FME M 503      26.316   5.778   3.717  0.00  0.00    +0.000 C 
BRANCH   8   9
ATOM      9  SD  FME M 503      25.018   5.946   4.912  0.00  0.00    +0.000 S 
ATOM     10  CE  FME M 503      23.806   4.740   4.660  0.00  0.00    +0.000 C 
ENDBRANCH   8   9
ENDBRANCH   7   8
ENDBRANCH   1   7
TORSDOF 5
ENDMDL
MODEL 7
REMARK VINA RESULT:      -3.9      2.516      3.557
REMARK  Name = ligand_pdbs\FME.pdb
REMARK  5 active torsions:
REMARK  status: ('A' for Active; 'I' for Inactive)
REMARK    1  A    between atoms: N_1  and  CA_4
REMARK    2  A    between atoms: CA_4  and  CB_5
REMARK    3  A    between atoms: CA_4  and  C_9
REMARK    4  A    between atoms: CB_5  and  CG_6
REMARK    5  A    between atoms: CG_6  and  SD_7
REMARK                            x       y       z     vdW  Elec       q    Type
REMARK                         _______ _______ _______ _____ _____    ______ ____
ROOT
ATOM      1  CA  FME M 503      27.663   5.099   4.345  0.00  0.00    +0.000 C 
ENDROOT
BRANCH   1   2
ATOM      2  N   FME M 503      28.467   4.128   5.224  0.00  0.00    +0.000 NA
ATOM      3  CN  FME M 503      28.400   3.121   6.107  0.00  0.00    +0.000 C 
ATOM      4  O1  FME M 503      27.469   2.409   6.553  0.00  0.00    +0.000 OA
ENDBRANCH   1   2
BRANCH   1   5
ATOM      5  C   FME M 503      27.427   6.392   5.090  0.00  0.00    +0.000 C 
ATOM      6  O   FME M 503      26.270   6.730   5.348  0.00  0.00    +0.000 OA
ENDBRANCH   1   5
BRANCH   1   7
ATOM      7  CB  FME M 503      26.519   4.750   3.356  0.00  0.00    +0.000 C 
BRANCH   7   8
ATOM      8  CG  FME M 503      25.889   3.353   3.563  0.00  0.00    +0.000 C 
BRANCH   8   9
ATOM      9  SD  FME M 503      24.515   3.249   4.678  0.00  0.00    +0.000 S 
ATOM     10  CE  FME M 503      23.541   4.672   4.568  0.00  0.00    +0.000 C 
ENDBRANCH   8   9
ENDBRANCH   7   8
ENDBRANCH   1   7
TORSDOF 5
ENDMDL
MODEL 8
REMARK VINA RESULT:      -3.8      2.268      3.439
REMARK  Name = ligand_pdbs\FME.pdb
REMARK  5 active torsions:
REMARK  status: ('A' for Active; 'I' for Inactive)
REMARK    1  A    between atoms: N_1  and  CA_4
REMARK    2  A    between atoms: CA_4  and  CB_5
REMARK    3  A    between atoms: CA_4  and  C_9
REMARK    4  A    between atoms: CB_5  and  CG_6
REMARK    5  A    between atoms: CG_6  and  SD_7
REMARK                            x       y       z     vdW  Elec       q    Type
REMARK                         _______ _______ _______ _____ _____    ______ ____
ROOT
ATOM      1  CA  FME M 503      25.055   3.669   4.616  0.00  0.00    +0.000 C 
ENDROOT
BRANCH   1   2
ATOM      2  N   FME M 503      26.260   4.250   5.372  0.00  0.00    +0.000 NA
ATOM      3  CN  FME M 503      27.408   4.933   5.265  0.00  0.00    +0.000 C 
ATOM      4  O1  FME M 503      27.980   5.541   4.330  0.00  0.00    +0.000 OA
ENDBRANCH   1   2
BRANCH   1   5
ATOM      5  C   FME M 503      23.853   4.566   4.797  0.00  0.00    +0.000 C 
ATOM      6  O   FME M 503      23.957   5.765   4.533  0.00  0.00    +0.000 OA
ENDBRANCH   1   5
BRANCH   1   7
ATOM      7  CB  FME M 503      24.676   2.173   4.451  0.00  0.00    +0.000 C 
BRANCH   7   8
ATOM      8  CG  FME M 503      25.869   1.191   4.529  0.00  0.00    +0.000 C 
BRANCH   8   9
ATOM      9  SD  FME M 503      27.106   1.329   3.267  0.00  0.00    +0.000 S 
ATOM     10  CE  FME M 503      28.648   1.667   3.969  0.00  0.00    +0.000 C 
ENDBRANCH   8   9
ENDBRANCH   7   8
ENDBRANCH   1   7
TORSDOF 5
ENDMDL
MODEL 9
REMARK VINA RESULT:      -3.7      2.875      4.799
REMARK  Name = ligand_pdbs\FME.pdb
REMARK  5 active torsions:
REMARK  status: ('A' for Active; 'I' for Inactive)
REMARK    1  A    between atoms: N_1  and  CA_4
REMARK    2  A    between atoms: CA_4  and  CB_5
REMARK    3  A    between atoms: CA_4  and  C_9
REMARK    4  A    between atoms: CB_5  and  CG_6
REMARK    5  A    between atoms: CG_6  and  SD_7
REMARK                            x       y       z     vdW  Elec       q    Type
REMARK                         _______ _______ _______ _____ _____    ______ ____
ROOT
ATOM      1  CA  FME M 503      24.847   2.278   4.539  0.00  0.00    +0.000 C 
ENDROOT
BRANCH   1   2
ATOM      2  N   FME M 503      26.316   2.304   4.989  0.00  0.00    +0.000 NA
ATOM      3  CN  FME M 503      27.493   2.936   4.885  0.00  0.00    +0.000 C 
ATOM      4  O1  FME M 503      27.869   4.002   4.341  0.00  0.00    +0.000 OA
ENDBRANCH   1   2
BRANCH   1   5
ATOM      5  C   FME M 503      24.672   1.290   3.409  0.00  0.00    +0.000 C 
ATOM      6  O   FME M 503      25.430   1.352   2.438  0.00  0.00    +0.000 OA
ENDBRANCH   1   5
BRANCH   1   7
ATOM      7  CB  FME M 503      23.864   3.476   4.455  0.00  0.00    +0.000 C 
BRANCH   7   8
ATOM      8  CG  FME M 503      24.275   4.709   5.293  0.00  0.00    +0.000 C 
BRANCH   8   9
ATOM      9  SD  FME M 503      24.689   6.184   4.402  0.00  0.00    +0.000 S 
ATOM     10  CE  FME M 503      26.023   6.986   5.152  0.00  0.00    +0.000 C 
ENDBRANCH   8   9
ENDBRANCH   7   8
ENDBRANCH   1   7
TORSDOF 5
ENDMDL
