MODEL 1
REMARK VINA RESULT:      -6.0      0.000      0.000
REMARK  Name = ligand_pdbs\GDP.pdb
REMARK  6 active torsions:
REMARK  status: ('A' for Active; 'I' for Inactive)
REMARK    1  A    between atoms: PB_1  and  O3A_5
REMARK    2  A    between atoms: O3A_5  and  PA_6
REMARK    3  A    between atoms: PA_6  and  O5'_9
REMARK    4  A    between atoms: O5'_9  and  C5'_10
REMARK    5  A    between atoms: C5'_10  and  C4'_11
REMARK    6  A    between atoms: C1'_17  and  N9_18
REMARK                            x       y       z     vdW  Elec       q    Type
REMARK                         _______ _______ _______ _____ _____    ______ ____
ROOT
ATOM      1  C4' GDP A1250      30.148   1.540   5.235  0.00  0.00    +0.000 C 
ATOM      2  O4' GDP A1250      29.008   2.064   4.551  0.00  0.00    +0.000 OA
ATOM      3  C3' GDP A1250      30.340   2.416   6.465  0.00  0.00    +0.000 C 
ATOM      4  O3' GDP A1250      31.334   3.372   6.090  0.00  0.00    +0.000 OA
ATOM      5  C2' GDP A1250      28.938   3.019   6.606  0.00  0.00    +0.000 C 
ATOM      6  O2' GDP A1250      28.876   4.301   7.273  0.00  0.00    +0.000 OA
ATOM      7  C1' GDP A1250      28.461   3.163   5.208  0.00  0.00    +0.000 C 
ENDROOT
BRANCH   7   8
ATOM      8  N9  GDP A1250      27.037   3.091   5.016  0.00  0.00    +0.000 N 
ATOM      9  C8  GDP A1250      26.232   2.032   4.913  0.00  0.00    +0.000 C 
ATOM     10  N7  GDP A1250      24.984   2.296   4.740  0.00  0.00    +0.000 NA
ATOM     11  C5  GDP A1250      24.938   3.651   4.723  0.00  0.00    +0.000 C 
ATOM     12  C6  GDP A1250      23.822   4.589   4.558  0.00  0.00    +0.000 C 
ATOM     13  O6  GDP A1250      22.606   4.372   4.385  0.00  0.00    +0.000 OA
ATOM     14  N1  GDP A1250      24.248   5.937   4.613  0.00  0.00    +0.000 NA
ATOM     15  C2  GDP A1250      25.546   6.347   4.794  0.00  0.00    +0.000 C 
ATOM     16  N2  GDP A1250      25.766   7.642   4.827  0.00  0.00    +0.000 NA
ATOM     17  N3  GDP A1250      26.580   5.460   4.941  0.00  0.00    +0.000 NA
ATOM     18  C4  GDP A1250      26.205   4.148   4.897  0.00  0.00    +0.000 C 
ENDBRANCH   7   8
BRANCH   1  19
ATOM     19  C5' GDP A1250      30.092   0.049   5.538  0.00  0.00    +0.000 C 
BRANCH  19  20
ATOM     20  O5' GDP A1250      29.034  -0.646   4.988  0.00  0.00    +0.000 OA
BRANCH  20  21
ATOM     21  PA  GDP A1250      29.265  -1.328   3.600  0.00  0.00    +0.000 P 
ATOM     22  O1A GDP A1250      30.426  -2.205   3.780  0.00  0.00    +0.000 OA
ATOM     23  O2A GDP A1250      29.324  -0.362   2.500  0.00  0.00    +0.000 OA
BRANCH  21  24
ATOM     24  O3A GDP A1250      28.037  -2.328   3.487  0.00  0.00    +0.000 OA
BRANCH  24  25
ATOM     25  PB  GDP A1250      26.648  -2.036   4.240  0.00  0.00    +0.000 P 
ATOM     26  O1B GDP A1250      25.909  -0.945   3.631  0.00  0.00    +0.000 OA
ATOM     27  O2B GDP A1250      26.810  -1.918   5.715  0.00  0.00    +0.000 OA
ATOM     28  O3B GDP A1250      25.992  -3.376   3.902  0.00  0.00    +0.000 OA
ENDBRANCH  24  25
ENDBRANCH  21  24
ENDBRANCH  20  21
ENDBRANCH  19  20
ENDBRANCH   1  19
TORSDOF 6
ENDMDL
MODEL 2
REMARK VINA RESULT:      -5.8      2.002      3.745
REMARK  Name = ligand_pdbs\GDP.pdb
REMARK  6 active torsions:
REMARK  status: ('A' for Active; 'I' for Inactive)
REMARK    1  A    between atoms: PB_1  and  O3A_5
REMARK    2  A    between atoms: O3A_5  and  PA_6
REMARK    3  A    between atoms: PA_6  and  O5'_9
REMARK    4  A    between atoms: O5'_9  and  C5'_10
REMARK    5  A    between atoms: C5'_10  and  C4'_11
REMARK    6  A    between atoms: C1'_17  and  N9_18
REMARK                            x       y       z     vdW  Elec       q    Type
REMARK                         _______ _______ _______ _____ _____    ______ ____
ROOT
ATOM      1  C4' GDP A1250      26.369   0.743   5.240  0.00  0.00    +0.000 C 
ATOM      2  O4' GDP A1250      25.236   1.603   5.383  0.00  0.00    +0.000 OA
ATOM      3  C3' GDP A1250      26.564   0.551   3.743  0.00  0.00    +0.000 C 
ATOM      4  O3' GDP A1250      25.919  -0.688   3.439  0.00  0.00    +0.000 OA
ATOM      5  C2' GDP A1250      25.819   1.775   3.199  0.00  0.00    +0.000 C 
ATOM      6  O2' GDP A1250      25.294   1.639   1.858  0.00  0.00    +0.000 OA
ATOM      7  C1' GDP A1250      24.700   1.973   4.153  0.00  0.00    +0.000 C 
ENDROOT
BRANCH   7   8
ATOM      8  N9  GDP A1250      24.227   3.324   4.299  0.00  0.00    +0.000 N 
ATOM      9  C8  GDP A1250      22.984   3.807   4.307  0.00  0.00    +0.000 C 
ATOM     10  N7  GDP A1250      22.883   5.083   4.456  0.00  0.00    +0.000 NA
ATOM     11  C5  GDP A1250      24.168   5.500   4.557  0.00  0.00    +0.000 C 
ATOM     12  C6  GDP A1250      24.752   6.834   4.734  0.00  0.00    +0.000 C 
ATOM     13  O6  GDP A1250      24.199   7.948   4.838  0.00  0.00    +0.000 OA
ATOM     14  N1  GDP A1250      26.165   6.794   4.792  0.00  0.00    +0.000 NA
ATOM     15  C2  GDP A1250      26.925   5.656   4.692  0.00  0.00    +0.000 C 
ATOM     16  N2  GDP A1250      28.230   5.797   4.772  0.00  0.00    +0.000 NA
ATOM     17  N3  GDP A1250      26.369   4.416   4.520  0.00  0.00    +0.000 NA
ATOM     18  C4  GDP A1250      25.005   4.416   4.463  0.00  0.00    +0.000 C 
ENDBRANCH   7   8
BRANCH   1  19
ATOM     19  C5' GDP A1250      27.622   1.198   5.975  0.00  0.00    +0.000 C 
BRANCH  19  20
ATOM     20  O5' GDP A1250      28.564   0.225   6.239  0.00  0.00    +0.000 OA
BRANCH  20  21
ATOM     21  PA  GDP A1250      30.051   0.545   5.880  0.00  0.00    +0.000 P 
ATOM     22  O1A GDP A1250      30.773   0.547   7.155  0.00  0.00    +0.000 OA
ATOM     23  O2A GDP A1250      30.184   1.737   5.038  0.00  0.00    +0.000 OA
BRANCH  21  24
ATOM     24  O3A GDP A1250      30.537  -0.784   5.160  0.00  0.00    +0.000 OA
BRANCH  24  25
ATOM     25  PB  GDP A1250      29.761  -1.376   3.884  0.00  0.00    +0.000 P 
ATOM     26  O1B GDP A1250      29.508  -0.365   2.874  0.00  0.00    +0.000 OA
ATOM     27  O2B GDP A1250      28.566  -2.178   4.261  0.00  0.00    +0.000 OA
ATOM     28  O3B GDP A1250      30.883  -2.311   3.429  0.00  0.00    +0.000 OA
ENDBRANCH  24  25
ENDBRANCH  21  24
ENDBRANCH  20  21
ENDBRANCH  19  20
ENDBRANCH   1  19
TORSDOF 6
ENDMDL
MODEL 3
REMARK VINA RESULT:      -5.6      1.688      2.923
REMARK  Name = ligand_pdbs\GDP.pdb
REMARK  6 active torsions:
REMARK  status: ('A' for Active; 'I' for Inactive)
REMARK    1  A    between atoms: PB_1  and  O3A_5
REMARK    2  A    between atoms: O3A_5  and  PA_6
REMARK    3  A    between atoms: PA_6  and  O5'_9
REMARK    4  A    between atoms: O5'_9  and  C5'_10
REMARK    5  A    between atoms: C5'_10  and  C4'_11
REMARK    6  A    between atoms: C1'_17  and  N9_18
REMARK                            x       y       z     vdW  Elec       q    Type
REMARK                         _______ _______ _______ _____ _____    ______ ____
ROOT
ATOM      1  C4' GDP A1250      29.231   2.071   4.684  0.00  0.00    +0.000 C 
ATOM      2  O4' GDP A1250      29.059   3.490   4.700  0.00  0.00    +0.000 OA
ATOM      3  C3' GDP A1250      28.621   1.559   5.980  0.00  0.00    +0.000 C 
ATOM      4  O3' GDP A1250      29.722   1.417   6.880  0.00  0.00    +0.000 OA
ATOM      5  C2' GDP A1250      27.690   2.724   6.336  0.00  0.00    +0.000 C 
ATOM      6  O2' GDP A1250      27.390   2.873   7.744  0.00  0.00    +0.000 OA
ATOM      7  C1' GDP A1250      28.412   3.927   5.852  0.00  0.00    +0.000 C 
ENDROOT
BRANCH   7   8
ATOM      8  N9  GDP A1250      27.589   5.043   5.465  0.00  0.00    +0.000 N 
ATOM      9  C8  GDP A1250      27.875   6.343   5.398  0.00  0.00    +0.000 C 
ATOM     10  N7  GDP A1250      26.912   7.107   5.013  0.00  0.00    +0.000 NA
ATOM     11  C5  GDP A1250      25.884   6.249   4.802  0.00  0.00    +0.000 C 
ATOM     12  C6  GDP A1250      24.502   6.469   4.360  0.00  0.00    +0.000 C 
ATOM     13  O6  GDP A1250      23.911   7.526   4.061  0.00  0.00    +0.000 OA
ATOM     14  N1  GDP A1250      23.772   5.261   4.273  0.00  0.00    +0.000 NA
ATOM     15  C2  GDP A1250      24.270   4.016   4.568  0.00  0.00    +0.000 C 
ATOM     16  N2  GDP A1250      23.454   2.995   4.428  0.00  0.00    +0.000 NA
ATOM     17  N3  GDP A1250      25.561   3.824   4.986  0.00  0.00    +0.000 NA
ATOM     18  C4  GDP A1250      26.298   4.970   5.077  0.00  0.00    +0.000 C 
ENDBRANCH   7   8
BRANCH   1  19
ATOM     19  C5' GDP A1250      28.713   1.372   3.435  0.00  0.00    +0.000 C 
BRANCH  19  20
ATOM     20  O5' GDP A1250      27.403   1.631   3.088  0.00  0.00    +0.000 OA
BRANCH  20  21
ATOM     21  PA  GDP A1250      26.379   0.457   3.212  0.00  0.00    +0.000 P 
ATOM     22  O1A GDP A1250      25.544   0.532   2.010  0.00  0.00    +0.000 OA
ATOM     23  O2A GDP A1250      25.687   0.445   4.503  0.00  0.00    +0.000 OA
BRANCH  21  24
ATOM     24  O3A GDP A1250      27.282  -0.828   2.978  0.00  0.00    +0.000 OA
BRANCH  24  25
ATOM     25  PB  GDP A1250      27.469  -1.940   4.123  0.00  0.00    +0.000 P 
ATOM     26  O1B GDP A1250      26.462  -2.982   4.050  0.00  0.00    +0.000 OA
ATOM     27  O2B GDP A1250      27.638  -1.344   5.477  0.00  0.00    +0.000 OA
ATOM     28  O3B GDP A1250      28.815  -2.466   3.623  0.00  0.00    +0.000 OA
ENDBRANCH  24  25
ENDBRANCH  21  24
ENDBRANCH  20  21
ENDBRANCH  19  20
ENDBRANCH   1  19
TORSDOF 6
ENDMDL
MODEL 4
REMARK VINA RESULT:      -5.3      3.503      7.021
REMARK  Name = ligand_pdbs\GDP.pdb
REMARK  6 active torsions:
REMARK  status: ('A' for Active; 'I' for Inactive)
REMARK    1  A    between atoms: PB_1  and  O3A_5
REMARK    2  A    between atoms: O3A_5  and  PA_6
REMARK    3  A    between atoms: PA_6  and  O5'_9
REMARK    4  A    between atoms: O5'_9  and  C5'_10
REMARK    5  A    between atoms: C5'_10  and  C4'_11
REMARK    6  A    between atoms: C1'_17  and  N9_18
REMARK                            x       y       z     vdW  Elec       q    Type
REMARK                         _______ _______ _______ _____ _____    ______ ____
ROOT
ATOM      1  C4' GDP A1250      26.068   2.256   2.614  0.00  0.00    +0.000 C 
ATOM      2  O4' GDP A1250      27.351   1.629   2.676  0.00  0.00    +0.000 OA
ATOM      3  C3' GDP A1250      25.055   1.179   2.971  0.00  0.00    +0.000 C 
ATOM      4  O3' GDP A1250      24.580   0.683   1.718  0.00  0.00    +0.000 OA
ATOM      5  C2' GDP A1250      25.950   0.184   3.719  0.00  0.00    +0.000 C 
ATOM      6  O2' GDP A1250      25.501  -1.192   3.702  0.00  0.00    +0.000 OA
ATOM      7  C1' GDP A1250      27.261   0.286   3.031  0.00  0.00    +0.000 C 
ENDROOT
BRANCH   7   8
ATOM      8  N9  GDP A1250      28.419  -0.006   3.835  0.00  0.00    +0.000 N 
ATOM      9  C8  GDP A1250      29.245  -1.053   3.809  0.00  0.00    +0.000 C 
ATOM     10  N7  GDP A1250      30.203  -1.027   4.670  0.00  0.00    +0.000 NA
ATOM     11  C5  GDP A1250      30.009   0.137   5.336  0.00  0.00    +0.000 C 
ATOM     12  C6  GDP A1250      30.742   0.765   6.441  0.00  0.00    +0.000 C 
ATOM     13  O6  GDP A1250      31.753   0.377   7.061  0.00  0.00    +0.000 OA
ATOM     14  N1  GDP A1250      30.174   2.004   6.821  0.00  0.00    +0.000 NA
ATOM     15  C2  GDP A1250      29.064   2.572   6.246  0.00  0.00    +0.000 C 
ATOM     16  N2  GDP A1250      28.672   3.734   6.719  0.00  0.00    +0.000 NA
ATOM     17  N3  GDP A1250      28.384   1.972   5.218  0.00  0.00    +0.000 NA
ATOM     18  C4  GDP A1250      28.908   0.775   4.822  0.00  0.00    +0.000 C 
ENDBRANCH   7   8
BRANCH   1  19
ATOM     19  C5' GDP A1250      25.932   3.532   3.434  0.00  0.00    +0.000 C 
BRANCH  19  20
ATOM     20  O5' GDP A1250      25.597   3.371   4.763  0.00  0.00    +0.000 OA
BRANCH  20  21
ATOM     21  PA  GDP A1250      24.808   4.532   5.451  0.00  0.00    +0.000 P 
ATOM     22  O1A GDP A1250      24.500   4.052   6.802  0.00  0.00    +0.000 OA
ATOM     23  O2A GDP A1250      23.684   5.008   4.642  0.00  0.00    +0.000 OA
BRANCH  21  24
ATOM     24  O3A GDP A1250      25.926   5.636   5.678  0.00  0.00    +0.000 OA
BRANCH  24  25
ATOM     25  PB  GDP A1250      25.856   7.060   4.936  0.00  0.00    +0.000 P 
ATOM     26  O1B GDP A1250      25.064   8.028   5.672  0.00  0.00    +0.000 OA
ATOM     27  O2B GDP A1250      25.495   6.940   3.497  0.00  0.00    +0.000 OA
ATOM     28  O3B GDP A1250      27.346   7.385   5.066  0.00  0.00    +0.000 OA
ENDBRANCH  24  25
ENDBRANCH  21  24
ENDBRANCH  20  21
ENDBRANCH  19  20
ENDBRANCH   1  19
TORSDOF 6
ENDMDL
MODEL 5
REMARK VINA RESULT:      -5.0      1.181      2.323
REMARK  Name = ligand_pdbs\GDP.pdb
REMARK  6 active torsions:
REMARK  status: ('A' for Active; 'I' for Inactive)
REMARK    1  A    between atoms: PB_1  and  O3A_5
REMARK    2  A    between atoms: O3A_5  and  PA_6
REMARK    3  A    between atoms: PA_6  and  O5'_9
REMARK    4  A    between atoms: O5'_9  and  C5'_10
REMARK    5  A    between atoms: C5'_10  and  C4'_11
REMARK    6  A    between atoms: C1'_17  and  N9_18
REMARK                            x       y       z     vdW  Elec       q    Type
REMARK                         _______ _______ _______ _____ _____    ______ ____
ROOT
ATOM      1  C4' GDP A1250      29.348   2.006   4.107  0.00  0.00    +0.000 C 
ATOM      2  O4' GDP A1250      28.539   3.171   3.927  0.00  0.00    +0.000 OA
ATOM      3  C3' GDP A1250      29.743   1.993   5.576  0.00  0.00    +0.000 C 
ATOM      4  O3' GDP A1250      31.046   2.580   5.616  0.00  0.00    +0.000 OA
ATOM      5  C2' GDP A1250      28.653   2.890   6.173  0.00  0.00    +0.000 C 
ATOM      6  O2' GDP A1250      29.010   3.573   7.398  0.00  0.00    +0.000 OA
ATOM      7  C1' GDP A1250      28.381   3.888   5.109  0.00  0.00    +0.000 C 
ENDROOT
BRANCH   7   8
ATOM      8  N9  GDP A1250      27.050   4.435   5.084  0.00  0.00    +0.000 N 
ATOM      9  C8  GDP A1250      26.610   5.649   5.420  0.00  0.00    +0.000 C 
ATOM     10  N7  GDP A1250      25.342   5.838   5.288  0.00  0.00    +0.000 NA
ATOM     11  C5  GDP A1250      24.884   4.649   4.826  0.00  0.00    +0.000 C 
ATOM     12  C6  GDP A1250      23.535   4.191   4.475  0.00  0.00    +0.000 C 
ATOM     13  O6  GDP A1250      22.444   4.794   4.516  0.00  0.00    +0.000 OA
ATOM     14  N1  GDP A1250      23.528   2.850   4.024  0.00  0.00    +0.000 NA
ATOM     15  C2  GDP A1250      24.637   2.048   3.921  0.00  0.00    +0.000 C 
ATOM     16  N2  GDP A1250      24.453   0.825   3.476  0.00  0.00    +0.000 NA
ATOM     17  N3  GDP A1250      25.892   2.485   4.258  0.00  0.00    +0.000 NA
ATOM     18  C4  GDP A1250      25.937   3.778   4.695  0.00  0.00    +0.000 C 
ENDBRANCH   7   8
BRANCH   1  19
ATOM     19  C5' GDP A1250      28.724   0.705   3.621  0.00  0.00    +0.000 C 
BRANCH  19  20
ATOM     20  O5' GDP A1250      29.578  -0.193   3.014  0.00  0.00    +0.000 OA
BRANCH  20  21
ATOM     21  PA  GDP A1250      29.542  -1.672   3.518  0.00  0.00    +0.000 P 
ATOM     22  O1A GDP A1250      30.869  -1.926   4.089  0.00  0.00    +0.000 OA
ATOM     23  O2A GDP A1250      29.069  -2.606   2.494  0.00  0.00    +0.000 OA
BRANCH  21  24
ATOM     24  O3A GDP A1250      28.585  -1.595   4.782  0.00  0.00    +0.000 OA
BRANCH  24  25
ATOM     25  PB  GDP A1250      26.990  -1.719   4.631  0.00  0.00    +0.000 P 
ATOM     26  O1B GDP A1250      26.547  -1.515   3.265  0.00  0.00    +0.000 OA
ATOM     27  O2B GDP A1250      26.254  -0.910   5.641  0.00  0.00    +0.000 OA
ATOM     28  O3B GDP A1250      26.905  -3.201   5.001  0.00  0.00    +0.000 OA
ENDBRANCH  24  25
ENDBRANCH  21  24
ENDBRANCH  20  21
ENDBRANCH  19  20
ENDBRANCH   1  19
TORSDOF 6
ENDMDL
MODEL 6
REMARK VINA RESULT:      -4.9      1.737      2.558
REMARK  Name = ligand_pdbs\GDP.pdb
REMARK  6 active torsions:
REMARK  status: ('A' for Active; 'I' for Inactive)
REMARK    1  A    between atoms: PB_1  and  O3A_5
REMARK    2  A    between atoms: O3A_5  and  PA_6
REMARK    3  A    between atoms: PA_6  and  O5'_9
REMARK    4  A    between atoms: O5'_9  and  C5'_10
REMARK    5  A    between atoms: C5'_10  and  C4'_11
REMARK    6  A    between atoms: C1'_17  and  N9_18
REMARK                            x       y       z     vdW  Elec       q    Type
REMARK                         _______ _______ _______ _____ _____    ______ ____
ROOT
ATOM      1  C4' GDP A1250      29.878   0.864   5.235  0.00  0.00    +0.000 C 
ATOM      2  O4' GDP A1250      29.406   1.916   4.390  0.00  0.00    +0.000 OA
ATOM      3  C3' GDP A1250      30.166   1.505   6.584  0.00  0.00    +0.000 C 
ATOM      4  O3' GDP A1250      31.571   1.772   6.577  0.00  0.00    +0.000 OA
ATOM      5  C2' GDP A1250      29.306   2.770   6.488  0.00  0.00    +0.000 C 
ATOM      6  O2' GDP A1250      29.750   3.887   7.293  0.00  0.00    +0.000 OA
ATOM      7  C1' GDP A1250      29.363   3.140   5.052  0.00  0.00    +0.000 C 
ENDROOT
BRANCH   7   8
ATOM      8  N9  GDP A1250      28.220   3.847   4.537  0.00  0.00    +0.000 N 
ATOM      9  C8  GDP A1250      28.057   4.501   3.385  0.00  0.00    +0.000 C 
ATOM     10  N7  GDP A1250      26.901   5.042   3.212  0.00  0.00    +0.000 NA
ATOM     11  C5  GDP A1250      26.223   4.729   4.343  0.00  0.00    +0.000 C 
ATOM     12  C6  GDP A1250      24.860   5.045   4.784  0.00  0.00    +0.000 C 
ATOM     13  O6  GDP A1250      23.960   5.696   4.218  0.00  0.00    +0.000 OA
ATOM     14  N1  GDP A1250      24.573   4.498   6.058  0.00  0.00    +0.000 NA
ATOM     15  C2  GDP A1250      25.450   3.761   6.815  0.00  0.00    +0.000 C 
ATOM     16  N2  GDP A1250      25.017   3.323   7.976  0.00  0.00    +0.000 NA
ATOM     17  N3  GDP A1250      26.723   3.479   6.394  0.00  0.00    +0.000 NA
ATOM     18  C4  GDP A1250      27.034   3.988   5.166  0.00  0.00    +0.000 C 
ENDBRANCH   7   8
BRANCH   1  19
ATOM     19  C5' GDP A1250      28.974  -0.359   5.309  0.00  0.00    +0.000 C 
BRANCH  19  20
ATOM     20  O5' GDP A1250      27.701  -0.210   4.799  0.00  0.00    +0.000 OA
BRANCH  20  21
ATOM     21  PA  GDP A1250      27.147  -1.362   3.899  0.00  0.00    +0.000 P 
ATOM     22  O1A GDP A1250      26.679  -2.397   4.827  0.00  0.00    +0.000 OA
ATOM     23  O2A GDP A1250      28.096  -1.777   2.864  0.00  0.00    +0.000 OA
BRANCH  21  24
ATOM     24  O3A GDP A1250      25.811  -0.740   3.307  0.00  0.00    +0.000 OA
BRANCH  24  25
ATOM     25  PB  GDP A1250      25.570   0.848   3.276  0.00  0.00    +0.000 P 
ATOM     26  O1B GDP A1250      26.697   1.566   2.710  0.00  0.00    +0.000 OA
ATOM     27  O2B GDP A1250      25.098   1.382   4.583  0.00  0.00    +0.000 OA
ATOM     28  O3B GDP A1250      24.407   0.818   2.284  0.00  0.00    +0.000 OA
ENDBRANCH  24  25
ENDBRANCH  21  24
ENDBRANCH  20  21
ENDBRANCH  19  20
ENDBRANCH   1  19
TORSDOF 6
ENDMDL
MODEL 7
REMARK VINA RESULT:      -4.5      3.915      7.156
REMARK  Name = ligand_pdbs\GDP.pdb
REMARK  6 active torsions:
REMARK  status: ('A' for Active; 'I' for Inactive)
REMARK    1  A    between atoms: PB_1  and  O3A_5
REMARK    2  A    between atoms: O3A_5  and  PA_6
REMARK    3  A    between atoms: PA_6  and  O5'_9
REMARK    4  A    between atoms: O5'_9  and  C5'_10
REMARK    5  A    between atoms: C5'_10  and  C4'_11
REMARK    6  A    between atoms: C1'_17  and  N9_18
REMARK                            x       y       z     vdW  Elec       q    Type
REMARK                         _______ _______ _______ _____ _____    ______ ____
ROOT
ATOM      1  C4' GDP A1250      25.118   2.991   5.291  0.00  0.00    +0.000 C 
ATOM      2  O4' GDP A1250      25.939   1.826   5.177  0.00  0.00    +0.000 OA
ATOM      3  C3' GDP A1250      25.727   3.826   6.408  0.00  0.00    +0.000 C 
ATOM      4  O3' GDP A1250      24.968   3.500   7.574  0.00  0.00    +0.000 OA
ATOM      5  C2' GDP A1250      27.155   3.268   6.434  0.00  0.00    +0.000 C 
ATOM      6  O2' GDP A1250      27.845   3.384   7.701  0.00  0.00    +0.000 OA
ATOM      7  C1' GDP A1250      26.991   1.834   6.088  0.00  0.00    +0.000 C 
ENDROOT
BRANCH   7   8
ATOM      8  N9  GDP A1250      28.110   1.212   5.431  0.00  0.00    +0.000 N 
ATOM      9  C8  GDP A1250      29.311   1.703   5.123  0.00  0.00    +0.000 C 
ATOM     10  N7  GDP A1250      30.109   0.888   4.524  0.00  0.00    +0.000 NA
ATOM     11  C5  GDP A1250      29.385  -0.253   4.414  0.00  0.00    +0.000 C 
ATOM     12  C6  GDP A1250      29.702  -1.559   3.827  0.00  0.00    +0.000 C 
ATOM     13  O6  GDP A1250      30.742  -1.960   3.267  0.00  0.00    +0.000 OA
ATOM     14  N1  GDP A1250      28.627  -2.471   3.945  0.00  0.00    +0.000 NA
ATOM     15  C2  GDP A1250      27.416  -2.191   4.530  0.00  0.00    +0.000 C 
ATOM     16  N2  GDP A1250      26.527  -3.158   4.560  0.00  0.00    +0.000 NA
ATOM     17  N3  GDP A1250      27.130  -0.964   5.069  0.00  0.00    +0.000 NA
ATOM     18  C4  GDP A1250      28.148  -0.059   4.976  0.00  0.00    +0.000 C 
ENDBRANCH   7   8
BRANCH   1  19
ATOM     19  C5' GDP A1250      24.897   3.755   3.994  0.00  0.00    +0.000 C 
BRANCH  19  20
ATOM     20  O5' GDP A1250      26.007   3.934   3.193  0.00  0.00    +0.000 OA
BRANCH  20  21
ATOM     21  PA  GDP A1250      26.747   5.308   3.284  0.00  0.00    +0.000 P 
ATOM     22  O1A GDP A1250      26.989   5.718   1.897  0.00  0.00    +0.000 OA
ATOM     23  O2A GDP A1250      27.907   5.266   4.177  0.00  0.00    +0.000 OA
BRANCH  21  24
ATOM     24  O3A GDP A1250      25.607   6.293   3.786  0.00  0.00    +0.000 OA
BRANCH  24  25
ATOM     25  PB  GDP A1250      25.936   7.514   4.777  0.00  0.00    +0.000 P 
ATOM     26  O1B GDP A1250      26.204   8.748   4.062  0.00  0.00    +0.000 OA
ATOM     27  O2B GDP A1250      26.960   7.164   5.799  0.00  0.00    +0.000 OA
ATOM     28  O3B GDP A1250      24.555   7.570   5.433  0.00  0.00    +0.000 OA
ENDBRANCH  24  25
ENDBRANCH  21  24
ENDBRANCH  20  21
ENDBRANCH  19  20
ENDBRANCH   1  19
TORSDOF 6
ENDMDL
MODEL 8
REMARK VINA RESULT:      -4.4      2.105      4.229
REMARK  Name = ligand_pdbs\GDP.pdb
REMARK  6 active torsions:
REMARK  status: ('A' for Active; 'I' for Inactive)
REMARK    1  A    between atoms: PB_1  and  O3A_5
REMARK    2  A    between atoms: O3A_5  and  PA_6
REMARK    3  A    between atoms: PA_6  and  O5'_9
REMARK    4  A    between atoms: O5'_9  and  C5'_10
REMARK    5  A    between atoms: C5'_10  and  C4'_11
REMARK    6  A    between atoms: C1'_17  and  N9_18
REMARK                            x       y       z     vdW  Elec       q    Type
REMARK                         _______ _______ _______ _____ _____    ______ ____
ROOT
ATOM      1  C4' GDP A1250      25.754  -0.145   4.668  0.00  0.00    +0.000 C 
ATOM      2  O4' GDP A1250      25.775   1.131   5.313  0.00  0.00    +0.000 OA
ATOM      3  C3' GDP A1250      25.688   0.141   3.175  0.00  0.00    +0.000 C 
ATOM      4  O3' GDP A1250      24.302   0.040   2.837  0.00  0.00    +0.000 OA
ATOM      5  C2' GDP A1250      26.220   1.578   3.136  0.00  0.00    +0.000 C 
ATOM      6  O2' GDP A1250      25.774   2.377   2.016  0.00  0.00    +0.000 OA
ATOM      7  C1' GDP A1250      25.732   2.181   4.401  0.00  0.00    +0.000 C 
ENDROOT
BRANCH   7   8
ATOM      8  N9  GDP A1250      26.541   3.237   4.950  0.00  0.00    +0.000 N 
ATOM      9  C8  GDP A1250      27.608   3.181   5.749  0.00  0.00    +0.000 C 
ATOM     10  N7  GDP A1250      28.119   4.316   6.076  0.00  0.00    +0.000 NA
ATOM     11  C5  GDP A1250      27.331   5.221   5.445  0.00  0.00    +0.000 C 
ATOM     12  C6  GDP A1250      27.363   6.687   5.407  0.00  0.00    +0.000 C 
ATOM     13  O6  GDP A1250      28.142   7.491   5.958  0.00  0.00    +0.000 OA
ATOM     14  N1  GDP A1250      26.330   7.221   4.602  0.00  0.00    +0.000 NA
ATOM     15  C2  GDP A1250      25.391   6.479   3.930  0.00  0.00    +0.000 C 
ATOM     16  N2  GDP A1250      24.501   7.137   3.221  0.00  0.00    +0.000 NA
ATOM     17  N3  GDP A1250      25.367   5.110   3.979  0.00  0.00    +0.000 NA
ATOM     18  C4  GDP A1250      26.354   4.559   4.745  0.00  0.00    +0.000 C 
ENDBRANCH   7   8
BRANCH   1  19
ATOM     19  C5' GDP A1250      26.877  -1.091   5.070  0.00  0.00    +0.000 C 
BRANCH  19  20
ATOM     20  O5' GDP A1250      28.106  -0.512   5.315  0.00  0.00    +0.000 OA
BRANCH  20  21
ATOM     21  PA  GDP A1250      29.264  -0.832   4.317  0.00  0.00    +0.000 P 
ATOM     22  O1A GDP A1250      29.217   0.228   3.304  0.00  0.00    +0.000 OA
ATOM     23  O2A GDP A1250      29.229  -2.215   3.834  0.00  0.00    +0.000 OA
BRANCH  21  24
ATOM     24  O3A GDP A1250      30.566  -0.501   5.164  0.00  0.00    +0.000 OA
BRANCH  24  25
ATOM     25  PB  GDP A1250      30.589   0.709   6.221  0.00  0.00    +0.000 P 
ATOM     26  O1B GDP A1250      29.553   0.582   7.229  0.00  0.00    +0.000 OA
ATOM     27  O2B GDP A1250      30.644   2.044   5.564  0.00  0.00    +0.000 OA
ATOM     28  O3B GDP A1250      31.957   0.376   6.821  0.00  0.00    +0.000 OA
ENDBRANCH  24  25
ENDBRANCH  21  24
ENDBRANCH  20  21
ENDBRANCH  19  20
ENDBRANCH   1  19
TORSDOF 6
ENDMDL
MODEL 9
REMARK VINA RESULT:      -4.4      2.419      4.445
REMARK  Name = ligand_pdbs\GDP.pdb
REMARK  6 active torsions:
REMARK  status: ('A' for Active; 'I' for Inactive)
REMARK    1  A    between atoms: PB_1  and  O3A_5
REMARK    2  A    between atoms: O3A_5  and  PA_6
REMARK    3  A    between atoms: PA_6  and  O5'_9
REMARK    4  A    between atoms: O5'_9  and  C5'_10
REMARK    5  A    between atoms: C5'_10  and  C4'_11
REMARK    6  A    between atoms: C1'_17  and  N9_18
REMARK                            x       y       z     vdW  Elec       q    Type
REMARK                         _______ _______ _______ _____ _____    ______ ____
ROOT
ATOM      1  C4' GDP A1250      26.332   0.090   4.939  0.00  0.00    +0.000 C 
ATOM      2  O4' GDP A1250      25.202   0.952   5.089  0.00  0.00    +0.000 OA
ATOM      3  C3' GDP A1250      26.656   0.078   3.452  0.00  0.00    +0.000 C 
ATOM      4  O3' GDP A1250      26.024  -1.099   2.943  0.00  0.00    +0.000 OA
ATOM      5  C2' GDP A1250      25.979   1.377   3.002  0.00  0.00    +0.000 C 
ATOM      6  O2' GDP A1250      25.573   1.419   1.614  0.00  0.00    +0.000 OA
ATOM      7  C1' GDP A1250      24.781   1.483   3.873  0.00  0.00    +0.000 C 
ENDROOT
BRANCH   7   8
ATOM      8  N9  GDP A1250      24.315   2.817   4.145  0.00  0.00    +0.000 N 
ATOM      9  C8  GDP A1250      23.099   3.257   4.469  0.00  0.00    +0.000 C 
ATOM     10  N7  GDP A1250      22.995   4.528   4.649  0.00  0.00    +0.000 NA
ATOM     11  C5  GDP A1250      24.250   4.990   4.425  0.00  0.00    +0.000 C 
ATOM     12  C6  GDP A1250      24.813   6.344   4.460  0.00  0.00    +0.000 C 
ATOM     13  O6  GDP A1250      24.268   7.437   4.709  0.00  0.00    +0.000 OA
ATOM     14  N1  GDP A1250      26.196   6.353   4.159  0.00  0.00    +0.000 NA
ATOM     15  C2  GDP A1250      26.945   5.242   3.861  0.00  0.00    +0.000 C 
ATOM     16  N2  GDP A1250      28.222   5.429   3.611  0.00  0.00    +0.000 NA
ATOM     17  N3  GDP A1250      26.405   3.983   3.826  0.00  0.00    +0.000 NA
ATOM     18  C4  GDP A1250      25.072   3.935   4.115  0.00  0.00    +0.000 C 
ENDBRANCH   7   8
BRANCH   1  19
ATOM     19  C5' GDP A1250      27.520   0.421   5.831  0.00  0.00    +0.000 C 
BRANCH  19  20
ATOM     20  O5' GDP A1250      27.601   1.722   6.284  0.00  0.00    +0.000 OA
BRANCH  20  21
ATOM     21  PA  GDP A1250      28.892   2.529   5.932  0.00  0.00    +0.000 P 
ATOM     22  O1A GDP A1250      28.665   3.882   6.448  0.00  0.00    +0.000 OA
ATOM     23  O2A GDP A1250      29.265   2.409   4.520  0.00  0.00    +0.000 OA
BRANCH  21  24
ATOM     24  O3A GDP A1250      29.975   1.915   6.917  0.00  0.00    +0.000 OA
BRANCH  24  25
ATOM     25  PB  GDP A1250      30.741   0.546   6.569  0.00  0.00    +0.000 P 
ATOM     26  O1B GDP A1250      32.183   0.680   6.665  0.00  0.00    +0.000 OA
ATOM     27  O2B GDP A1250      30.266  -0.071   5.300  0.00  0.00    +0.000 OA
ATOM     28  O3B GDP A1250      30.202  -0.251   7.759  0.00  0.00    +0.000 OA
ENDBRANCH  24  25
ENDBRANCH  21  24
ENDBRANCH  20  21
ENDBRANCH  19  20
ENDBRANCH   1  19
TORSDOF 6
ENDMDL
