MODEL 1
REMARK VINA RESULT:      -5.2      0.000      0.000
REMARK  Name = ligand_pdbs\GLC.pdb
REMARK  1 active torsions:
REMARK  status: ('A' for Active; 'I' for Inactive)
REMARK    1  A    between atoms: C5_5  and  C6_6
REMARK                            x       y       z     vdW  Elec       q    Type
REMARK                         _______ _______ _______ _____ _____    ______ ____
ROOT
ATOM      1  C1  GLC E   1      24.631   3.050   5.261  0.00  0.00    +0.000 C 
ATOM      2  C2  GLC E   1      24.086   4.472   5.142  0.00  0.00    +0.000 C 
ATOM      3  C3  GLC E   1      25.109   5.424   4.536  0.00  0.00    +0.000 C 
ATOM      4  C4  GLC E   1      26.393   5.338   5.367  0.00  0.00    +0.000 C 
ATOM      5  C5  GLC E   1      26.871   3.883   5.359  0.00  0.00    +0.000 C 
ATOM      6  O1  GLC E   1      24.797   2.487   3.957  0.00  0.00    +0.000 OA
ATOM      7  O2  GLC E   1      22.896   4.484   4.346  0.00  0.00    +0.000 OA
ATOM      8  O3  GLC E   1      24.530   6.731   4.582  0.00  0.00    +0.000 OA
ATOM      9  O4  GLC E   1      27.513   6.195   5.042  0.00  0.00    +0.000 OA
ATOM     10  O5  GLC E   1      25.879   3.047   5.961  0.00  0.00    +0.000 OA
ENDROOT
BRANCH   5  11
ATOM     11  C6  GLC E   1      28.198   3.735   6.094  0.00  0.00    +0.000 C 
ATOM     12  O6  GLC E   1      29.083   2.900   5.339  0.00  0.00    +0.000 OA
ENDBRANCH   5  11
TORSDOF 1
ENDMDL
MODEL 2
REMARK VINA RESULT:      -5.1      1.339      3.410
REMARK  Name = ligand_pdbs\GLC.pdb
REMARK  1 active torsions:
REMARK  status: ('A' for Active; 'I' for Inactive)
REMARK    1  A    between atoms: C5_5  and  C6_6
REMARK                            x       y       z     vdW  Elec       q    Type
REMARK                         _______ _______ _______ _____ _____    ______ ____
ROOT
ATOM      1  C1  GLC E   1      27.613   4.597   4.617  0.00  0.00    +0.000 C 
ATOM      2  C2  GLC E   1      26.883   5.937   4.557  0.00  0.00    +0.000 C 
ATOM      3  C3  GLC E   1      25.474   5.843   5.129  0.00  0.00    +0.000 C 
ATOM      4  C4  GLC E   1      24.734   4.720   4.397  0.00  0.00    +0.000 C 
ATOM      5  C5  GLC E   1      25.529   3.424   4.583  0.00  0.00    +0.000 C 
ATOM      6  O1  GLC E   1      27.888   4.260   5.979  0.00  0.00    +0.000 OA
ATOM      7  O2  GLC E   1      27.619   6.938   5.268  0.00  0.00    +0.000 OA
ATOM      8  O3  GLC E   1      24.859   7.117   4.914  0.00  0.00    +0.000 OA
ATOM      9  O4  GLC E   1      23.345   4.460   4.707  0.00  0.00    +0.000 OA
ATOM     10  O5  GLC E   1      26.829   3.569   4.005  0.00  0.00    +0.000 OA
ENDROOT
BRANCH   5  11
ATOM     11  C6  GLC E   1      24.805   2.238   3.955  0.00  0.00    +0.000 C 
ATOM     12  O6  GLC E   1      25.555   1.742   2.842  0.00  0.00    +0.000 OA
ENDBRANCH   5  11
TORSDOF 1
ENDMDL
MODEL 3
REMARK VINA RESULT:      -5.1      1.289      2.886
REMARK  Name = ligand_pdbs\GLC.pdb
REMARK  1 active torsions:
REMARK  status: ('A' for Active; 'I' for Inactive)
REMARK    1  A    between atoms: C5_5  and  C6_6
REMARK                            x       y       z     vdW  Elec       q    Type
REMARK                         _______ _______ _______ _____ _____    ______ ____
ROOT
ATOM      1  C1  GLC E   1      27.343   5.907   4.251  0.00  0.00    +0.000 C 
ATOM      2  C2  GLC E   1      25.851   5.872   3.925  0.00  0.00    +0.000 C 
ATOM      3  C3  GLC E   1      25.029   5.320   5.082  0.00  0.00    +0.000 C 
ATOM      4  C4  GLC E   1      25.596   3.949   5.461  0.00  0.00    +0.000 C 
ATOM      5  C5  GLC E   1      27.072   4.126   5.825  0.00  0.00    +0.000 C 
ATOM      6  O1  GLC E   1      27.591   6.888   5.261  0.00  0.00    +0.000 OA
ATOM      7  O2  GLC E   1      25.383   7.183   3.590  0.00  0.00    +0.000 OA
ATOM      8  O3  GLC E   1      23.679   5.231   4.618  0.00  0.00    +0.000 OA
ATOM      9  O4  GLC E   1      24.952   3.173   6.499  0.00  0.00    +0.000 OA
ATOM     10  O5  GLC E   1      27.791   4.622   4.692  0.00  0.00    +0.000 OA
ENDROOT
BRANCH   5  11
ATOM     11  C6  GLC E   1      27.684   2.814   6.302  0.00  0.00    +0.000 C 
ATOM     12  O6  GLC E   1      29.110   2.926   6.341  0.00  0.00    +0.000 OA
ENDBRANCH   5  11
TORSDOF 1
ENDMDL
MODEL 4
REMARK VINA RESULT:      -5.1      1.306      4.038
REMARK  Name = ligand_pdbs\GLC.pdb
REMARK  1 active torsions:
REMARK  status: ('A' for Active; 'I' for Inactive)
REMARK    1  A    between atoms: C5_5  and  C6_6
REMARK                            x       y       z     vdW  Elec       q    Type
REMARK                         _______ _______ _______ _____ _____    ______ ____
ROOT
ATOM      1  C1  GLC E   1      27.591   4.927   5.026  0.00  0.00    +0.000 C 
ATOM      2  C2  GLC E   1      26.896   3.628   5.430  0.00  0.00    +0.000 C 
ATOM      3  C3  GLC E   1      25.524   3.492   4.782  0.00  0.00    +0.000 C 
ATOM      4  C4  GLC E   1      24.708   4.743   5.123  0.00  0.00    +0.000 C 
ATOM      5  C5  GLC E   1      25.476   5.966   4.615  0.00  0.00    +0.000 C 
ATOM      6  O1  GLC E   1      27.940   4.875   3.641  0.00  0.00    +0.000 OA
ATOM      7  O2  GLC E   1      27.704   2.500   5.075  0.00  0.00    +0.000 OA
ATOM      8  O3  GLC E   1      24.933   2.306   5.321  0.00  0.00    +0.000 OA
ATOM      9  O4  GLC E   1      23.334   4.841   4.679  0.00  0.00    +0.000 OA
ATOM     10  O5  GLC E   1      26.741   6.050   5.277  0.00  0.00    +0.000 OA
ENDROOT
BRANCH   5  11
ATOM     11  C6  GLC E   1      24.680   7.248   4.838  0.00  0.00    +0.000 C 
ATOM     12  O6  GLC E   1      25.445   8.165   5.627  0.00  0.00    +0.000 OA
ENDBRANCH   5  11
TORSDOF 1
ENDMDL
MODEL 5
REMARK VINA RESULT:      -5.0      1.456      3.026
REMARK  Name = ligand_pdbs\GLC.pdb
REMARK  1 active torsions:
REMARK  status: ('A' for Active; 'I' for Inactive)
REMARK    1  A    between atoms: C5_5  and  C6_6
REMARK                            x       y       z     vdW  Elec       q    Type
REMARK                         _______ _______ _______ _____ _____    ______ ____
ROOT
ATOM      1  C1  GLC E   1      24.477   4.565   5.451  0.00  0.00    +0.000 C 
ATOM      2  C2  GLC E   1      25.774   5.357   5.295  0.00  0.00    +0.000 C 
ATOM      3  C3  GLC E   1      26.609   4.856   4.124  0.00  0.00    +0.000 C 
ATOM      4  C4  GLC E   1      26.838   3.353   4.308  0.00  0.00    +0.000 C 
ATOM      5  C5  GLC E   1      25.472   2.668   4.387  0.00  0.00    +0.000 C 
ATOM      6  O1  GLC E   1      23.608   4.844   4.351  0.00  0.00    +0.000 OA
ATOM      7  O2  GLC E   1      25.489   6.749   5.117  0.00  0.00    +0.000 OA
ATOM      8  O3  GLC E   1      27.835   5.592   4.152  0.00  0.00    +0.000 OA
ATOM      9  O4  GLC E   1      27.662   2.636   3.359  0.00  0.00    +0.000 OA
ATOM     10  O5  GLC E   1      24.750   3.162   5.519  0.00  0.00    +0.000 OA
ENDROOT
BRANCH   5  11
ATOM     11  C6  GLC E   1      25.620   1.153   4.481  0.00  0.00    +0.000 C 
ATOM     12  O6  GLC E   1      24.939   0.528   3.388  0.00  0.00    +0.000 OA
ENDBRANCH   5  11
TORSDOF 1
ENDMDL
MODEL 6
REMARK VINA RESULT:      -5.0      2.709      5.070
REMARK  Name = ligand_pdbs\GLC.pdb
REMARK  1 active torsions:
REMARK  status: ('A' for Active; 'I' for Inactive)
REMARK    1  A    between atoms: C5_5  and  C6_6
REMARK                            x       y       z     vdW  Elec       q    Type
REMARK                         _______ _______ _______ _____ _____    ______ ____
ROOT
ATOM      1  C1  GLC E   1      29.277   2.420   6.193  0.00  0.00    +0.000 C 
ATOM      2  C2  GLC E   1      28.463   1.129   6.255  0.00  0.00    +0.000 C 
ATOM      3  C3  GLC E   1      27.921   0.732   4.888  0.00  0.00    +0.000 C 
ATOM      4  C4  GLC E   1      27.131   1.917   4.324  0.00  0.00    +0.000 C 
ATOM      5  C5  GLC E   1      28.068   3.125   4.253  0.00  0.00    +0.000 C 
ATOM      6  O1  GLC E   1      30.489   2.190   5.469  0.00  0.00    +0.000 OA
ATOM      7  O2  GLC E   1      29.261   0.062   6.779  0.00  0.00    +0.000 OA
ATOM      8  O3  GLC E   1      27.091  -0.414   5.094  0.00  0.00    +0.000 OA
ATOM      9  O4  GLC E   1      26.452   1.782   3.054  0.00  0.00    +0.000 OA
ATOM     10  O5  GLC E   1      28.521   3.461   5.568  0.00  0.00    +0.000 OA
ENDROOT
BRANCH   5  11
ATOM     11  C6  GLC E   1      27.374   4.324   3.615  0.00  0.00    +0.000 C 
ATOM     12  O6  GLC E   1      27.911   5.539   4.149  0.00  0.00    +0.000 OA
ENDBRANCH   5  11
TORSDOF 1
ENDMDL
MODEL 7
REMARK VINA RESULT:      -5.0      1.494      4.505
REMARK  Name = ligand_pdbs\GLC.pdb
REMARK  1 active torsions:
REMARK  status: ('A' for Active; 'I' for Inactive)
REMARK    1  A    between atoms: C5_5  and  C6_6
REMARK                            x       y       z     vdW  Elec       q    Type
REMARK                         _______ _______ _______ _____ _____    ______ ____
ROOT
ATOM      1  C1  GLC E   1      27.506   3.744   6.091  0.00  0.00    +0.000 C 
ATOM      2  C2  GLC E   1      27.405   2.221   6.039  0.00  0.00    +0.000 C 
ATOM      3  C3  GLC E   1      26.513   1.750   4.898  0.00  0.00    +0.000 C 
ATOM      4  C4  GLC E   1      25.153   2.440   5.037  0.00  0.00    +0.000 C 
ATOM      5  C5  GLC E   1      25.381   3.954   5.013  0.00  0.00    +0.000 C 
ATOM      6  O1  GLC E   1      28.234   4.217   4.955  0.00  0.00    +0.000 OA
ATOM      7  O2  GLC E   1      28.705   1.640   5.898  0.00  0.00    +0.000 OA
ATOM      8  O3  GLC E   1      26.405   0.329   5.023  0.00  0.00    +0.000 OA
ATOM      9  O4  GLC E   1      24.090   2.118   4.109  0.00  0.00    +0.000 OA
ATOM     10  O5  GLC E   1      26.203   4.334   6.120  0.00  0.00    +0.000 OA
ENDROOT
BRANCH   5  11
ATOM     11  C6  GLC E   1      24.059   4.712   5.057  0.00  0.00    +0.000 C 
ATOM     12  O6  GLC E   1      24.176   5.939   4.330  0.00  0.00    +0.000 OA
ENDBRANCH   5  11
TORSDOF 1
ENDMDL
MODEL 8
REMARK VINA RESULT:      -4.9      2.297      3.530
REMARK  Name = ligand_pdbs\GLC.pdb
REMARK  1 active torsions:
REMARK  status: ('A' for Active; 'I' for Inactive)
REMARK    1  A    between atoms: C5_5  and  C6_6
REMARK                            x       y       z     vdW  Elec       q    Type
REMARK                         _______ _______ _______ _____ _____    ______ ____
ROOT
ATOM      1  C1  GLC E   1      26.707   3.820   3.490  0.00  0.00    +0.000 C 
ATOM      2  C2  GLC E   1      26.142   3.864   4.908  0.00  0.00    +0.000 C 
ATOM      3  C3  GLC E   1      27.189   3.490   5.950  0.00  0.00    +0.000 C 
ATOM      4  C4  GLC E   1      27.770   2.124   5.575  0.00  0.00    +0.000 C 
ATOM      5  C5  GLC E   1      28.358   2.226   4.165  0.00  0.00    +0.000 C 
ATOM      6  O1  GLC E   1      27.659   4.873   3.319  0.00  0.00    +0.000 OA
ATOM      7  O2  GLC E   1      25.626   5.168   5.198  0.00  0.00    +0.000 OA
ATOM      8  O3  GLC E   1      26.516   3.457   7.212  0.00  0.00    +0.000 OA
ATOM      9  O4  GLC E   1      28.749   1.503   6.441  0.00  0.00    +0.000 OA
ATOM     10  O5  GLC E   1      27.323   2.554   3.234  0.00  0.00    +0.000 OA
ENDROOT
BRANCH   5  11
ATOM     11  C6  GLC E   1      29.038   0.924   3.756  0.00  0.00    +0.000 C 
ATOM     12  O6  GLC E   1      28.185   0.183   2.878  0.00  0.00    +0.000 OA
ENDBRANCH   5  11
TORSDOF 1
ENDMDL
MODEL 9
REMARK VINA RESULT:      -4.8      1.892      3.418
REMARK  Name = ligand_pdbs\GLC.pdb
REMARK  1 active torsions:
REMARK  status: ('A' for Active; 'I' for Inactive)
REMARK    1  A    between atoms: C5_5  and  C6_6
REMARK                            x       y       z     vdW  Elec       q    Type
REMARK                         _______ _______ _______ _____ _____    ______ ____
ROOT
ATOM      1  C1  GLC E   1      26.984   4.201   5.665  0.00  0.00    +0.000 C 
ATOM      2  C2  GLC E   1      26.396   3.808   4.312  0.00  0.00    +0.000 C 
ATOM      3  C3  GLC E   1      26.705   2.359   3.956  0.00  0.00    +0.000 C 
ATOM      4  C4  GLC E   1      28.221   2.160   4.036  0.00  0.00    +0.000 C 
ATOM      5  C5  GLC E   1      28.677   2.524   5.451  0.00  0.00    +0.000 C 
ATOM      6  O1  GLC E   1      26.296   3.506   6.709  0.00  0.00    +0.000 OA
ATOM      7  O2  GLC E   1      24.979   4.008   4.307  0.00  0.00    +0.000 OA
ATOM      8  O3  GLC E   1      26.207   2.148   2.632  0.00  0.00    +0.000 OA
ATOM      9  O4  GLC E   1      28.792   0.878   3.682  0.00  0.00    +0.000 OA
ATOM     10  O5  GLC E   1      28.382   3.900   5.713  0.00  0.00    +0.000 OA
ENDROOT
BRANCH   5  11
ATOM     11  C6  GLC E   1      30.168   2.264   5.635  0.00  0.00    +0.000 C 
ATOM     12  O6  GLC E   1      30.368   1.250   6.625  0.00  0.00    +0.000 OA
ENDBRANCH   5  11
TORSDOF 1
ENDMDL
