MODEL 1
REMARK VINA RESULT:      -3.2      0.000      0.000
REMARK  Name = ligand_pdbs\GOL_A_1002 .pdb
REMARK  1 active torsions:
REMARK  status: ('A' for Active; 'I' for Inactive)
REMARK    1  A    between atoms: C1_1  and  C2_3
REMARK                            x       y       z     vdW  Elec       q    Type
REMARK                         _______ _______ _______ _____ _____    ______ ____
ROOT
ATOM      1  C2  GOL A1002      25.580   7.262   5.065  0.00  0.00    +0.000 C 
ATOM      2  O2  GOL A1002      25.303   8.375   5.759  0.00  0.00    +0.000 OA
ATOM      3  C3  GOL A1002      26.854   6.639   4.917  0.00  0.00    +0.000 C 
ATOM      4  O3  GOL A1002      27.956   5.632   4.467  0.00  0.00    +0.000 OA
ENDROOT
BRANCH   1   5
ATOM      5  C1  GOL A1002      24.523   6.636   4.402  0.00  0.00    +0.000 C 
ATOM      6  O1  GOL A1002      23.862   5.229   4.812  0.00  0.00    +0.000 OA
ENDBRANCH   1   5
TORSDOF 1
ENDMDL
MODEL 2
REMARK VINA RESULT:      -3.1      1.989      3.278
REMARK  Name = ligand_pdbs\GOL_A_1002 .pdb
REMARK  1 active torsions:
REMARK  status: ('A' for Active; 'I' for Inactive)
REMARK    1  A    between atoms: C1_1  and  C2_3
REMARK                            x       y       z     vdW  Elec       q    Type
REMARK                         _______ _______ _______ _____ _____    ______ ____
ROOT
ATOM      1  C2  GOL A1002      23.967   4.873   4.827  0.00  0.00    +0.000 C 
ATOM      2  O2  GOL A1002      22.847   4.328   4.332  0.00  0.00    +0.000 OA
ATOM      3  C3  GOL A1002      24.508   6.155   4.515  0.00  0.00    +0.000 C 
ATOM      4  O3  GOL A1002      25.460   7.390   4.513  0.00  0.00    +0.000 OA
ENDROOT
BRANCH   1   5
ATOM      5  C1  GOL A1002      24.702   4.116   5.742  0.00  0.00    +0.000 C 
ATOM      6  O1  GOL A1002      26.285   4.233   5.997  0.00  0.00    +0.000 OA
ENDBRANCH   1   5
TORSDOF 1
ENDMDL
MODEL 3
REMARK VINA RESULT:      -3.1      0.829      2.917
REMARK  Name = ligand_pdbs\GOL_A_1002 .pdb
REMARK  1 active torsions:
REMARK  status: ('A' for Active; 'I' for Inactive)
REMARK    1  A    between atoms: C1_1  and  C2_3
REMARK                            x       y       z     vdW  Elec       q    Type
REMARK                         _______ _______ _______ _____ _____    ______ ____
ROOT
ATOM      1  C2  GOL A1002      26.266   6.611   4.984  0.00  0.00    +0.000 C 
ATOM      2  O2  GOL A1002      27.585   6.380   5.058  0.00  0.00    +0.000 OA
ATOM      3  C3  GOL A1002      25.225   5.637   4.976  0.00  0.00    +0.000 C 
ATOM      4  O3  GOL A1002      23.799   5.008   4.931  0.00  0.00    +0.000 OA
ENDROOT
BRANCH   1   5
ATOM      5  C1  GOL A1002      25.849   7.940   4.898  0.00  0.00    +0.000 C 
ATOM      6  O1  GOL A1002      25.037   8.743   6.030  0.00  0.00    +0.000 OA
ENDBRANCH   1   5
TORSDOF 1
ENDMDL
MODEL 4
REMARK VINA RESULT:      -3.1      2.167      3.237
REMARK  Name = ligand_pdbs\GOL_A_1002 .pdb
REMARK  1 active torsions:
REMARK  status: ('A' for Active; 'I' for Inactive)
REMARK    1  A    between atoms: C1_1  and  C2_3
REMARK                            x       y       z     vdW  Elec       q    Type
REMARK                         _______ _______ _______ _____ _____    ______ ____
ROOT
ATOM      1  C2  GOL A1002      23.989   4.776   4.871  0.00  0.00    +0.000 C 
ATOM      2  O2  GOL A1002      22.824   4.348   4.363  0.00  0.00    +0.000 OA
ATOM      3  C3  GOL A1002      24.845   4.068   5.765  0.00  0.00    +0.000 C 
ATOM      4  O3  GOL A1002      26.055   3.738   6.692  0.00  0.00    +0.000 OA
ENDROOT
BRANCH   1   5
ATOM      5  C1  GOL A1002      24.423   6.050   4.504  0.00  0.00    +0.000 C 
ATOM      6  O1  GOL A1002      25.616   6.871   5.202  0.00  0.00    +0.000 OA
ENDBRANCH   1   5
TORSDOF 1
ENDMDL
MODEL 5
REMARK VINA RESULT:      -3.0      0.722      2.874
REMARK  Name = ligand_pdbs\GOL_A_1002 .pdb
REMARK  1 active torsions:
REMARK  status: ('A' for Active; 'I' for Inactive)
REMARK    1  A    between atoms: C1_1  and  C2_3
REMARK                            x       y       z     vdW  Elec       q    Type
REMARK                         _______ _______ _______ _____ _____    ______ ____
ROOT
ATOM      1  C2  GOL A1002      25.896   7.022   4.729  0.00  0.00    +0.000 C 
ATOM      2  O2  GOL A1002      26.017   8.336   4.492  0.00  0.00    +0.000 OA
ATOM      3  C3  GOL A1002      24.696   6.253   4.705  0.00  0.00    +0.000 C 
ATOM      4  O3  GOL A1002      23.725   5.037   4.805  0.00  0.00    +0.000 OA
ENDROOT
BRANCH   1   5
ATOM      5  C1  GOL A1002      27.058   6.314   5.042  0.00  0.00    +0.000 C 
ATOM      6  O1  GOL A1002      27.907   5.407   4.021  0.00  0.00    +0.000 OA
ENDBRANCH   1   5
TORSDOF 1
ENDMDL
MODEL 6
REMARK VINA RESULT:      -3.0      6.314      7.420
REMARK  Name = ligand_pdbs\GOL_A_1002 .pdb
REMARK  1 active torsions:
REMARK  status: ('A' for Active; 'I' for Inactive)
REMARK    1  A    between atoms: C1_1  and  C2_3
REMARK                            x       y       z     vdW  Elec       q    Type
REMARK                         _______ _______ _______ _____ _____    ______ ____
ROOT
ATOM      1  C2  GOL A1002      23.854  11.485  10.151  0.00  0.00    +0.000 C 
ATOM      2  O2  GOL A1002      24.115  12.722  10.597  0.00  0.00    +0.000 OA
ATOM      3  C3  GOL A1002      24.099  10.976   8.842  0.00  0.00    +0.000 C 
ATOM      4  O3  GOL A1002      24.156   9.996   7.631  0.00  0.00    +0.000 OA
ENDROOT
BRANCH   1   5
ATOM      5  C1  GOL A1002      23.272  10.586  11.047  0.00  0.00    +0.000 C 
ATOM      6  O1  GOL A1002      22.712  10.952  12.510  0.00  0.00    +0.000 OA
ENDBRANCH   1   5
TORSDOF 1
ENDMDL
MODEL 7
REMARK VINA RESULT:      -2.9      1.840      3.691
REMARK  Name = ligand_pdbs\GOL_A_1002 .pdb
REMARK  1 active torsions:
REMARK  status: ('A' for Active; 'I' for Inactive)
REMARK    1  A    between atoms: C1_1  and  C2_3
REMARK                            x       y       z     vdW  Elec       q    Type
REMARK                         _______ _______ _______ _____ _____    ______ ____
ROOT
ATOM      1  C2  GOL A1002      25.823   4.847   5.373  0.00  0.00    +0.000 C 
ATOM      2  O2  GOL A1002      26.677   4.158   6.144  0.00  0.00    +0.000 OA
ATOM      3  C3  GOL A1002      24.470   4.509   5.077  0.00  0.00    +0.000 C 
ATOM      4  O3  GOL A1002      23.033   4.581   4.478  0.00  0.00    +0.000 OA
ENDROOT
BRANCH   1   5
ATOM      5  C1  GOL A1002      26.294   6.021   4.783  0.00  0.00    +0.000 C 
ATOM      6  O1  GOL A1002      27.577   6.863   5.263  0.00  0.00    +0.000 OA
ENDBRANCH   1   5
TORSDOF 1
ENDMDL
MODEL 8
REMARK VINA RESULT:      -2.9      2.249      3.285
REMARK  Name = ligand_pdbs\GOL_A_1002 .pdb
REMARK  1 active torsions:
REMARK  status: ('A' for Active; 'I' for Inactive)
REMARK    1  A    between atoms: C1_1  and  C2_3
REMARK                            x       y       z     vdW  Elec       q    Type
REMARK                         _______ _______ _______ _____ _____    ______ ____
ROOT
ATOM      1  C2  GOL A1002      27.156   5.581   4.892  0.00  0.00    +0.000 C 
ATOM      2  O2  GOL A1002      27.603   6.804   5.209  0.00  0.00    +0.000 OA
ATOM      3  C3  GOL A1002      26.205   4.801   5.614  0.00  0.00    +0.000 C 
ATOM      4  O3  GOL A1002      25.270   3.619   6.011  0.00  0.00    +0.000 OA
ENDROOT
BRANCH   1   5
ATOM      5  C1  GOL A1002      27.670   4.986   3.738  0.00  0.00    +0.000 C 
ATOM      6  O1  GOL A1002      27.757   3.405   3.458  0.00  0.00    +0.000 OA
ENDBRANCH   1   5
TORSDOF 1
ENDMDL
MODEL 9
REMARK VINA RESULT:      -2.8      2.149      3.189
REMARK  Name = ligand_pdbs\GOL_A_1002 .pdb
REMARK  1 active torsions:
REMARK  status: ('A' for Active; 'I' for Inactive)
REMARK    1  A    between atoms: C1_1  and  C2_3
REMARK                            x       y       z     vdW  Elec       q    Type
REMARK                         _______ _______ _______ _____ _____    ______ ____
ROOT
ATOM      1  C2  GOL A1002      27.079   4.354   4.033  0.00  0.00    +0.000 C 
ATOM      2  O2  GOL A1002      27.775   3.369   3.449  0.00  0.00    +0.000 OA
ATOM      3  C3  GOL A1002      27.598   5.565   4.577  0.00  0.00    +0.000 C 
ATOM      4  O3  GOL A1002      27.657   6.958   5.275  0.00  0.00    +0.000 OA
ENDROOT
BRANCH   1   5
ATOM      5  C1  GOL A1002      25.696   4.191   4.137  0.00  0.00    +0.000 C 
ATOM      6  O1  GOL A1002      24.740   4.945   5.188  0.00  0.00    +0.000 OA
ENDBRANCH   1   5
TORSDOF 1
ENDMDL
