MODEL 1
REMARK VINA RESULT:      -3.2      0.000      0.000
REMARK  Name = ligand_pdbs\GOL.pdb
REMARK  1 active torsions:
REMARK  status: ('A' for Active; 'I' for Inactive)
REMARK    1  A    between atoms: C1_1  and  C2_3
REMARK                            x       y       z     vdW  Elec       q    Type
REMARK                         _______ _______ _______ _____ _____    ______ ____
ROOT
ATOM      1  C2  GOL A1002      25.596   7.226   5.043  0.00  0.00    +0.000 C 
ATOM      2  O2  GOL A1002      25.323   8.341   5.736  0.00  0.00    +0.000 OA
ATOM      3  C3  GOL A1002      26.867   6.596   4.896  0.00  0.00    +0.000 C 
ATOM      4  O3  GOL A1002      27.964   5.583   4.448  0.00  0.00    +0.000 OA
ENDROOT
BRANCH   1   5
ATOM      5  C1  GOL A1002      24.536   6.604   4.380  0.00  0.00    +0.000 C 
ATOM      6  O1  GOL A1002      23.839   5.223   4.818  0.00  0.00    +0.000 OA
ENDBRANCH   1   5
TORSDOF 1
ENDMDL
MODEL 2
REMARK VINA RESULT:      -3.1      2.155      3.218
REMARK  Name = ligand_pdbs\GOL.pdb
REMARK  1 active torsions:
REMARK  status: ('A' for Active; 'I' for Inactive)
REMARK    1  A    between atoms: C1_1  and  C2_3
REMARK                            x       y       z     vdW  Elec       q    Type
REMARK                         _______ _______ _______ _____ _____    ______ ____
ROOT
ATOM      1  C2  GOL A1002      24.003   4.773   4.871  0.00  0.00    +0.000 C 
ATOM      2  O2  GOL A1002      22.829   4.357   4.375  0.00  0.00    +0.000 OA
ATOM      3  C3  GOL A1002      24.860   4.059   5.759  0.00  0.00    +0.000 C 
ATOM      4  O3  GOL A1002      26.075   3.719   6.675  0.00  0.00    +0.000 OA
ENDROOT
BRANCH   1   5
ATOM      5  C1  GOL A1002      24.446   6.043   4.497  0.00  0.00    +0.000 C 
ATOM      6  O1  GOL A1002      25.618   6.876   5.217  0.00  0.00    +0.000 OA
ENDBRANCH   1   5
TORSDOF 1
ENDMDL
MODEL 3
REMARK VINA RESULT:      -3.0      0.700      2.866
REMARK  Name = ligand_pdbs\GOL.pdb
REMARK  1 active torsions:
REMARK  status: ('A' for Active; 'I' for Inactive)
REMARK    1  A    between atoms: C1_1  and  C2_3
REMARK                            x       y       z     vdW  Elec       q    Type
REMARK                         _______ _______ _______ _____ _____    ______ ____
ROOT
ATOM      1  C2  GOL A1002      25.929   7.057   4.744  0.00  0.00    +0.000 C 
ATOM      2  O2  GOL A1002      26.022   8.369   4.483  0.00  0.00    +0.000 OA
ATOM      3  C3  GOL A1002      24.743   6.266   4.751  0.00  0.00    +0.000 C 
ATOM      4  O3  GOL A1002      23.797   5.034   4.886  0.00  0.00    +0.000 OA
ENDROOT
BRANCH   1   5
ATOM      5  C1  GOL A1002      27.109   6.376   5.052  0.00  0.00    +0.000 C 
ATOM      6  O1  GOL A1002      27.929   5.423   4.050  0.00  0.00    +0.000 OA
ENDBRANCH   1   5
TORSDOF 1
ENDMDL
MODEL 4
REMARK VINA RESULT:      -3.0      0.914      2.616
REMARK  Name = ligand_pdbs\GOL.pdb
REMARK  1 active torsions:
REMARK  status: ('A' for Active; 'I' for Inactive)
REMARK    1  A    between atoms: C1_1  and  C2_3
REMARK                            x       y       z     vdW  Elec       q    Type
REMARK                         _______ _______ _______ _____ _____    ______ ____
ROOT
ATOM      1  C2  GOL A1002      26.645   6.044   4.920  0.00  0.00    +0.000 C 
ATOM      2  O2  GOL A1002      27.855   5.734   4.434  0.00  0.00    +0.000 OA
ATOM      3  C3  GOL A1002      26.165   7.343   5.260  0.00  0.00    +0.000 C 
ATOM      4  O3  GOL A1002      25.219   8.478   5.757  0.00  0.00    +0.000 OA
ENDROOT
BRANCH   1   5
ATOM      5  C1  GOL A1002      25.747   4.996   5.130  0.00  0.00    +0.000 C 
ATOM      6  O1  GOL A1002      24.145   5.129   5.174  0.00  0.00    +0.000 OA
ENDBRANCH   1   5
TORSDOF 1
ENDMDL
MODEL 5
REMARK VINA RESULT:      -3.0      6.460      7.803
REMARK  Name = ligand_pdbs\GOL.pdb
REMARK  1 active torsions:
REMARK  status: ('A' for Active; 'I' for Inactive)
REMARK    1  A    between atoms: C1_1  and  C2_3
REMARK                            x       y       z     vdW  Elec       q    Type
REMARK                         _______ _______ _______ _____ _____    ______ ____
ROOT
ATOM      1  C2  GOL A1002      23.772  12.148   9.487  0.00  0.00    +0.000 C 
ATOM      2  O2  GOL A1002      23.790  12.974   8.431  0.00  0.00    +0.000 OA
ATOM      3  C3  GOL A1002      23.491  12.494  10.842  0.00  0.00    +0.000 C 
ATOM      4  O3  GOL A1002      23.272  12.360  12.380  0.00  0.00    +0.000 OA
ENDROOT
BRANCH   1   5
ATOM      5  C1  GOL A1002      24.066  10.803   9.258  0.00  0.00    +0.000 C 
ATOM      6  O1  GOL A1002      24.183  10.102   7.815  0.00  0.00    +0.000 OA
ENDBRANCH   1   5
TORSDOF 1
ENDMDL
MODEL 6
REMARK VINA RESULT:      -3.0      1.563      3.072
REMARK  Name = ligand_pdbs\GOL.pdb
REMARK  1 active torsions:
REMARK  status: ('A' for Active; 'I' for Inactive)
REMARK    1  A    between atoms: C1_1  and  C2_3
REMARK                            x       y       z     vdW  Elec       q    Type
REMARK                         _______ _______ _______ _____ _____    ______ ____
ROOT
ATOM      1  C2  GOL A1002      24.333   5.236   4.869  0.00  0.00    +0.000 C 
ATOM      2  O2  GOL A1002      23.146   4.731   4.501  0.00  0.00    +0.000 OA
ATOM      3  C3  GOL A1002      24.758   6.592   4.760  0.00  0.00    +0.000 C 
ATOM      4  O3  GOL A1002      25.654   7.865   4.851  0.00  0.00    +0.000 OA
ENDROOT
BRANCH   1   5
ATOM      5  C1  GOL A1002      25.268   4.353   5.412  0.00  0.00    +0.000 C 
ATOM      6  O1  GOL A1002      26.813   4.689   5.706  0.00  0.00    +0.000 OA
ENDBRANCH   1   5
TORSDOF 1
ENDMDL
MODEL 7
REMARK VINA RESULT:      -2.9      1.022      3.293
REMARK  Name = ligand_pdbs\GOL.pdb
REMARK  1 active torsions:
REMARK  status: ('A' for Active; 'I' for Inactive)
REMARK    1  A    between atoms: C1_1  and  C2_3
REMARK                            x       y       z     vdW  Elec       q    Type
REMARK                         _______ _______ _______ _____ _____    ______ ____
ROOT
ATOM      1  C2  GOL A1002      26.583   5.648   4.282  0.00  0.00    +0.000 C 
ATOM      2  O2  GOL A1002      27.563   5.152   3.513  0.00  0.00    +0.000 OA
ATOM      3  C3  GOL A1002      25.238   5.180   4.364  0.00  0.00    +0.000 C 
ATOM      4  O3  GOL A1002      23.743   5.066   4.793  0.00  0.00    +0.000 OA
ENDROOT
BRANCH   1   5
ATOM      5  C1  GOL A1002      26.889   6.744   5.089  0.00  0.00    +0.000 C 
ATOM      6  O1  GOL A1002      25.855   7.887   5.550  0.00  0.00    +0.000 OA
ENDBRANCH   1   5
TORSDOF 1
ENDMDL
MODEL 8
REMARK VINA RESULT:      -2.9      2.039      3.782
REMARK  Name = ligand_pdbs\GOL.pdb
REMARK  1 active torsions:
REMARK  status: ('A' for Active; 'I' for Inactive)
REMARK    1  A    between atoms: C1_1  and  C2_3
REMARK                            x       y       z     vdW  Elec       q    Type
REMARK                         _______ _______ _______ _____ _____    ______ ____
ROOT
ATOM      1  C2  GOL A1002      25.623   4.613   5.470  0.00  0.00    +0.000 C 
ATOM      2  O2  GOL A1002      26.358   4.024   6.424  0.00  0.00    +0.000 OA
ATOM      3  C3  GOL A1002      24.270   4.322   5.128  0.00  0.00    +0.000 C 
ATOM      4  O3  GOL A1002      22.889   4.382   4.406  0.00  0.00    +0.000 OA
ENDROOT
BRANCH   1   5
ATOM      5  C1  GOL A1002      26.233   5.617   4.715  0.00  0.00    +0.000 C 
ATOM      6  O1  GOL A1002      27.588   6.390   5.104  0.00  0.00    +0.000 OA
ENDBRANCH   1   5
TORSDOF 1
ENDMDL
MODEL 9
REMARK VINA RESULT:      -2.9      1.811      2.075
REMARK  Name = ligand_pdbs\GOL.pdb
REMARK  1 active torsions:
REMARK  status: ('A' for Active; 'I' for Inactive)
REMARK    1  A    between atoms: C1_1  and  C2_3
REMARK                            x       y       z     vdW  Elec       q    Type
REMARK                         _______ _______ _______ _____ _____    ______ ____
ROOT
ATOM      1  C2  GOL A1002      26.397   5.941   5.196  0.00  0.00    +0.000 C 
ATOM      2  O2  GOL A1002      27.365   6.869   5.178  0.00  0.00    +0.000 OA
ATOM      3  C3  GOL A1002      26.525   4.577   5.593  0.00  0.00    +0.000 C 
ATOM      4  O3  GOL A1002      26.158   3.093   5.899  0.00  0.00    +0.000 OA
ENDROOT
BRANCH   1   5
ATOM      5  C1  GOL A1002      25.123   6.329   4.779  0.00  0.00    +0.000 C 
ATOM      6  O1  GOL A1002      23.842   5.365   4.658  0.00  0.00    +0.000 OA
ENDBRANCH   1   5
TORSDOF 1
ENDMDL
