MODEL 1
REMARK VINA RESULT:      -4.7      0.000      0.000
REMARK  Name = ligand_pdbs\GTP.pdb
REMARK  8 active torsions:
REMARK  status: ('A' for Active; 'I' for Inactive)
REMARK    1  A    between atoms: PG_1  and  O3B_5
REMARK    2  A    between atoms: O3B_5  and  PB_6
REMARK    3  A    between atoms: PB_6  and  O3A_9
REMARK    4  A    between atoms: O3A_9  and  PA_10
REMARK    5  A    between atoms: PA_10  and  O5'_13
REMARK    6  A    between atoms: O5'_13  and  C5'_14
REMARK    7  A    between atoms: C5'_14  and  C4'_15
REMARK    8  A    between atoms: C1'_21  and  N9_22
REMARK                            x       y       z     vdW  Elec       q    Type
REMARK                         _______ _______ _______ _____ _____    ______ ____
ROOT
ATOM      1  C4' GTP C 217      27.074  -0.411   2.443  0.00  0.00    +0.000 C 
ATOM      2  O4' GTP C 217      28.109   0.469   2.794  0.00  0.00    +0.000 OA
ATOM      3  C3' GTP C 217      27.511  -1.796   2.888  0.00  0.00    +0.000 C 
ATOM      4  O3' GTP C 217      28.191  -2.423   1.816  0.00  0.00    +0.000 OA
ATOM      5  C2' GTP C 217      28.516  -1.516   3.966  0.00  0.00    +0.000 C 
ATOM      6  O2' GTP C 217      29.502  -2.519   3.956  0.00  0.00    +0.000 OA
ATOM      7  C1' GTP C 217      29.093  -0.162   3.571  0.00  0.00    +0.000 C 
ENDROOT
BRANCH   7   8
ATOM      8  N9  GTP C 217      29.305   0.627   4.795  0.00  0.00    +0.000 N 
ATOM      9  C8  GTP C 217      29.750   0.183   6.009  0.00  0.00    +0.000 C 
ATOM     10  N7  GTP C 217      29.783   1.238   6.858  0.00  0.00    +0.000 NA
ATOM     11  C5  GTP C 217      29.339   2.341   6.201  0.00  0.00    +0.000 C 
ATOM     12  C6  GTP C 217      29.169   3.674   6.580  0.00  0.00    +0.000 C 
ATOM     13  O6  GTP C 217      29.433   4.053   7.725  0.00  0.00    +0.000 OA
ATOM     14  N1  GTP C 217      28.691   4.579   5.658  0.00  0.00    +0.000 NA
ATOM     15  C2  GTP C 217      28.387   4.165   4.376  0.00  0.00    +0.000 C 
ATOM     16  N2  GTP C 217      27.932   5.024   3.477  0.00  0.00    +0.000 NA
ATOM     17  N3  GTP C 217      28.561   2.850   4.010  0.00  0.00    +0.000 NA
ATOM     18  C4  GTP C 217      29.033   1.959   4.907  0.00  0.00    +0.000 C 
ENDBRANCH   7   8
BRANCH   1  19
ATOM     19  C5' GTP C 217      25.880   0.087   3.228  0.00  0.00    +0.000 C 
BRANCH  19  20
ATOM     20  O5' GTP C 217      25.773   1.473   3.107  0.00  0.00    +0.000 OA
BRANCH  20  21
ATOM     21  PA  GTP C 217      25.009   2.268   4.270  0.00  0.00    +0.000 P 
ATOM     22  O1A GTP C 217      23.547   1.880   4.208  0.00  0.00    +0.000 OA
ATOM     23  O2A GTP C 217      25.613   2.030   5.635  0.00  0.00    +0.000 OA
BRANCH  21  24
ATOM     24  O3A GTP C 217      25.181   3.792   3.832  0.00  0.00    +0.000 OA
BRANCH  24  25
ATOM     25  PB  GTP C 217      24.522   4.960   4.701  0.00  0.00    +0.000 P 
ATOM     26  O1B GTP C 217      23.019   4.931   4.574  0.00  0.00    +0.000 OA
ATOM     27  O2B GTP C 217      24.985   4.846   6.138  0.00  0.00    +0.000 OA
BRANCH  25  28
ATOM     28  O3B GTP C 217      25.183   6.245   3.997  0.00  0.00    +0.000 OA
BRANCH  28  29
ATOM     29  PG  GTP C 217      25.626   7.545   4.835  0.00  0.00    +0.000 P 
ATOM     30  O1G GTP C 217      26.821   7.170   5.681  0.00  0.00    +0.000 OA
ATOM     31  O2G GTP C 217      24.427   7.995   5.642  0.00  0.00    +0.000 OA
ATOM     32  O3G GTP C 217      25.985   8.695   3.924  0.00  0.00    +0.000 OA
ENDBRANCH  28  29
ENDBRANCH  25  28
ENDBRANCH  24  25
ENDBRANCH  21  24
ENDBRANCH  20  21
ENDBRANCH  19  20
ENDBRANCH   1  19
TORSDOF 8
ENDMDL
MODEL 2
REMARK VINA RESULT:      -4.3      3.351      6.009
REMARK  Name = ligand_pdbs\GTP.pdb
REMARK  8 active torsions:
REMARK  status: ('A' for Active; 'I' for Inactive)
REMARK    1  A    between atoms: PG_1  and  O3B_5
REMARK    2  A    between atoms: O3B_5  and  PB_6
REMARK    3  A    between atoms: PB_6  and  O3A_9
REMARK    4  A    between atoms: O3A_9  and  PA_10
REMARK    5  A    between atoms: PA_10  and  O5'_13
REMARK    6  A    between atoms: O5'_13  and  C5'_14
REMARK    7  A    between atoms: C5'_14  and  C4'_15
REMARK    8  A    between atoms: C1'_21  and  N9_22
REMARK                            x       y       z     vdW  Elec       q    Type
REMARK                         _______ _______ _______ _____ _____    ______ ____
ROOT
ATOM      1  C4' GTP C 217      25.536   5.755   4.132  0.00  0.00    +0.000 C 
ATOM      2  O4' GTP C 217      26.397   4.714   3.751  0.00  0.00    +0.000 OA
ATOM      3  C3' GTP C 217      24.494   5.143   5.051  0.00  0.00    +0.000 C 
ATOM      4  O3' GTP C 217      23.387   4.730   4.271  0.00  0.00    +0.000 OA
ATOM      5  C2' GTP C 217      25.169   3.911   5.576  0.00  0.00    +0.000 C 
ATOM      6  O2' GTP C 217      24.208   2.908   5.793  0.00  0.00    +0.000 OA
ATOM      7  C1' GTP C 217      26.131   3.530   4.458  0.00  0.00    +0.000 C 
ENDROOT
BRANCH   7   8
ATOM      8  N9  GTP C 217      27.384   3.053   5.065  0.00  0.00    +0.000 N 
ATOM      9  C8  GTP C 217      28.454   3.802   5.472  0.00  0.00    +0.000 C 
ATOM     10  N7  GTP C 217      29.398   2.960   5.956  0.00  0.00    +0.000 NA
ATOM     11  C5  GTP C 217      28.947   1.684   5.839  0.00  0.00    +0.000 C 
ATOM     12  C6  GTP C 217      29.495   0.445   6.173  0.00  0.00    +0.000 C 
ATOM     13  O6  GTP C 217      30.616   0.355   6.681  0.00  0.00    +0.000 OA
ATOM     14  N1  GTP C 217      28.768  -0.699   5.926  0.00  0.00    +0.000 NA
ATOM     15  C2  GTP C 217      27.514  -0.611   5.354  0.00  0.00    +0.000 C 
ATOM     16  N2  GTP C 217      26.802  -1.702   5.114  0.00  0.00    +0.000 NA
ATOM     17  N3  GTP C 217      26.982   0.614   5.030  0.00  0.00    +0.000 NA
ATOM     18  C4  GTP C 217      27.686   1.740   5.273  0.00  0.00    +0.000 C 
ENDBRANCH   7   8
BRANCH   1  19
ATOM     19  C5' GTP C 217      26.433   6.732   4.861  0.00  0.00    +0.000 C 
BRANCH  19  20
ATOM     20  O5' GTP C 217      25.755   7.284   5.948  0.00  0.00    +0.000 OA
BRANCH  20  21
ATOM     21  PA  GTP C 217      24.991   8.674   5.724  0.00  0.00    +0.000 P 
ATOM     22  O1A GTP C 217      25.704   9.417   4.614  0.00  0.00    +0.000 OA
ATOM     23  O2A GTP C 217      23.516   8.493   5.444  0.00  0.00    +0.000 OA
BRANCH  21  24
ATOM     24  O3A GTP C 217      25.216   9.431   7.110  0.00  0.00    +0.000 OA
BRANCH  24  25
ATOM     25  PB  GTP C 217      24.092  10.410   7.686  0.00  0.00    +0.000 P 
ATOM     26  O1B GTP C 217      23.959  11.634   6.815  0.00  0.00    +0.000 OA
ATOM     27  O2B GTP C 217      22.787   9.656   7.828  0.00  0.00    +0.000 OA
BRANCH  25  28
ATOM     28  O3B GTP C 217      24.713  10.738   9.132  0.00  0.00    +0.000 OA
BRANCH  28  29
ATOM     29  PG  GTP C 217      23.930  11.631  10.216  0.00  0.00    +0.000 P 
ATOM     30  O1G GTP C 217      24.942  12.510  10.913  0.00  0.00    +0.000 OA
ATOM     31  O2G GTP C 217      23.205  10.682  11.146  0.00  0.00    +0.000 OA
ATOM     32  O3G GTP C 217      22.869  12.487   9.565  0.00  0.00    +0.000 OA
ENDBRANCH  28  29
ENDBRANCH  25  28
ENDBRANCH  24  25
ENDBRANCH  21  24
ENDBRANCH  20  21
ENDBRANCH  19  20
ENDBRANCH   1  19
TORSDOF 8
ENDMDL
MODEL 3
REMARK VINA RESULT:      -4.3      2.997      6.384
REMARK  Name = ligand_pdbs\GTP.pdb
REMARK  8 active torsions:
REMARK  status: ('A' for Active; 'I' for Inactive)
REMARK    1  A    between atoms: PG_1  and  O3B_5
REMARK    2  A    between atoms: O3B_5  and  PB_6
REMARK    3  A    between atoms: PB_6  and  O3A_9
REMARK    4  A    between atoms: O3A_9  and  PA_10
REMARK    5  A    between atoms: PA_10  and  O5'_13
REMARK    6  A    between atoms: O5'_13  and  C5'_14
REMARK    7  A    between atoms: C5'_14  and  C4'_15
REMARK    8  A    between atoms: C1'_21  and  N9_22
REMARK                            x       y       z     vdW  Elec       q    Type
REMARK                         _______ _______ _______ _____ _____    ______ ____
ROOT
ATOM      1  C4' GTP C 217      25.828   0.857   5.374  0.00  0.00    +0.000 C 
ATOM      2  O4' GTP C 217      24.757   1.737   5.591  0.00  0.00    +0.000 OA
ATOM      3  C3' GTP C 217      25.913   0.636   3.874  0.00  0.00    +0.000 C 
ATOM      4  O3' GTP C 217      25.128  -0.492   3.536  0.00  0.00    +0.000 OA
ATOM      5  C2' GTP C 217      25.242   1.850   3.303  0.00  0.00    +0.000 C 
ATOM      6  O2' GTP C 217      24.589   1.502   2.107  0.00  0.00    +0.000 OA
ATOM      7  C1' GTP C 217      24.248   2.248   4.386  0.00  0.00    +0.000 C 
ENDROOT
BRANCH   7   8
ATOM      8  N9  GTP C 217      24.218   3.717   4.473  0.00  0.00    +0.000 N 
ATOM      9  C8  GTP C 217      23.119   4.529   4.525  0.00  0.00    +0.000 C 
ATOM     10  N7  GTP C 217      23.546   5.813   4.582  0.00  0.00    +0.000 NA
ATOM     11  C5  GTP C 217      24.904   5.824   4.541  0.00  0.00    +0.000 C 
ATOM     12  C6  GTP C 217      25.850   6.850   4.571  0.00  0.00    +0.000 C 
ATOM     13  O6  GTP C 217      25.510   8.034   4.639  0.00  0.00    +0.000 OA
ATOM     14  N1  GTP C 217      27.189   6.529   4.518  0.00  0.00    +0.000 NA
ATOM     15  C2  GTP C 217      27.581   5.208   4.436  0.00  0.00    +0.000 C 
ATOM     16  N2  GTP C 217      28.864   4.884   4.389  0.00  0.00    +0.000 NA
ATOM     17  N3  GTP C 217      26.641   4.204   4.410  0.00  0.00    +0.000 NA
ATOM     18  C4  GTP C 217      25.328   4.510   4.466  0.00  0.00    +0.000 C 
ENDBRANCH   7   8
BRANCH   1  19
ATOM     19  C5' GTP C 217      27.034   1.599   5.909  0.00  0.00    +0.000 C 
BRANCH  19  20
ATOM     20  O5' GTP C 217      28.132   0.740   5.978  0.00  0.00    +0.000 OA
BRANCH  20  21
ATOM     21  PA  GTP C 217      29.588   1.398   6.099  0.00  0.00    +0.000 P 
ATOM     22  O1A GTP C 217      29.421   2.780   6.693  0.00  0.00    +0.000 OA
ATOM     23  O2A GTP C 217      30.553   0.542   6.889  0.00  0.00    +0.000 OA
BRANCH  21  24
ATOM     24  O3A GTP C 217      30.052   1.517   4.578  0.00  0.00    +0.000 OA
BRANCH  24  25
ATOM     25  PB  GTP C 217      29.480   0.507   3.478  0.00  0.00    +0.000 P 
ATOM     26  O1B GTP C 217      28.297   1.114   2.767  0.00  0.00    +0.000 OA
ATOM     27  O2B GTP C 217      30.589   0.114   2.526  0.00  0.00    +0.000 OA
BRANCH  25  28
ATOM     28  O3B GTP C 217      29.076  -0.734   4.415  0.00  0.00    +0.000 OA
BRANCH  28  29
ATOM     29  PG  GTP C 217      28.558  -2.131   3.807  0.00  0.00    +0.000 P 
ATOM     30  O1G GTP C 217      27.547  -2.711   4.770  0.00  0.00    +0.000 OA
ATOM     31  O2G GTP C 217      29.770  -3.011   3.595  0.00  0.00    +0.000 OA
ATOM     32  O3G GTP C 217      27.922  -1.941   2.451  0.00  0.00    +0.000 OA
ENDBRANCH  28  29
ENDBRANCH  25  28
ENDBRANCH  24  25
ENDBRANCH  21  24
ENDBRANCH  20  21
ENDBRANCH  19  20
ENDBRANCH   1  19
TORSDOF 8
ENDMDL
MODEL 4
REMARK VINA RESULT:      -4.3      2.643      4.086
REMARK  Name = ligand_pdbs\GTP.pdb
REMARK  8 active torsions:
REMARK  status: ('A' for Active; 'I' for Inactive)
REMARK    1  A    between atoms: PG_1  and  O3B_5
REMARK    2  A    between atoms: O3B_5  and  PB_6
REMARK    3  A    between atoms: PB_6  and  O3A_9
REMARK    4  A    between atoms: O3A_9  and  PA_10
REMARK    5  A    between atoms: PA_10  and  O5'_13
REMARK    6  A    between atoms: O5'_13  and  C5'_14
REMARK    7  A    between atoms: C5'_14  and  C4'_15
REMARK    8  A    between atoms: C1'_21  and  N9_22
REMARK                            x       y       z     vdW  Elec       q    Type
REMARK                         _______ _______ _______ _____ _____    ______ ____
ROOT
ATOM      1  C4' GTP C 217      28.981  -0.158   4.584  0.00  0.00    +0.000 C 
ATOM      2  O4' GTP C 217      27.740   0.157   5.159  0.00  0.00    +0.000 OA
ATOM      3  C3' GTP C 217      28.731  -1.287   3.600  0.00  0.00    +0.000 C 
ATOM      4  O3' GTP C 217      28.911  -2.521   4.270  0.00  0.00    +0.000 OA
ATOM      5  C2' GTP C 217      27.274  -1.150   3.273  0.00  0.00    +0.000 C 
ATOM      6  O2' GTP C 217      26.730  -2.423   3.028  0.00  0.00    +0.000 OA
ATOM      7  C1' GTP C 217      26.685  -0.525   4.531  0.00  0.00    +0.000 C 
ENDROOT
BRANCH   7   8
ATOM      8  N9  GTP C 217      25.664   0.456   4.129  0.00  0.00    +0.000 N 
ATOM      9  C8  GTP C 217      24.968   0.504   2.953  0.00  0.00    +0.000 C 
ATOM     10  N7  GTP C 217      24.144   1.577   2.994  0.00  0.00    +0.000 NA
ATOM     11  C5  GTP C 217      24.328   2.225   4.174  0.00  0.00    +0.000 C 
ATOM     12  C6  GTP C 217      23.754   3.366   4.735  0.00  0.00    +0.000 C 
ATOM     13  O6  GTP C 217      22.894   4.014   4.131  0.00  0.00    +0.000 OA
ATOM     14  N1  GTP C 217      24.160   3.777   5.985  0.00  0.00    +0.000 NA
ATOM     15  C2  GTP C 217      25.125   3.063   6.668  0.00  0.00    +0.000 C 
ATOM     16  N2  GTP C 217      25.523   3.443   7.872  0.00  0.00    +0.000 NA
ATOM     17  N3  GTP C 217      25.684   1.938   6.108  0.00  0.00    +0.000 NA
ATOM     18  C4  GTP C 217      25.287   1.526   4.885  0.00  0.00    +0.000 C 
ENDBRANCH   7   8
BRANCH   1  19
ATOM     19  C5' GTP C 217      29.404   1.119   3.889  0.00  0.00    +0.000 C 
BRANCH  19  20
ATOM     20  O5' GTP C 217      28.678   2.199   4.392  0.00  0.00    +0.000 OA
BRANCH  20  21
ATOM     21  PA  GTP C 217      29.217   2.905   5.726  0.00  0.00    +0.000 P 
ATOM     22  O1A GTP C 217      29.020   1.935   6.872  0.00  0.00    +0.000 OA
ATOM     23  O2A GTP C 217      30.651   3.370   5.603  0.00  0.00    +0.000 OA
BRANCH  21  24
ATOM     24  O3A GTP C 217      28.232   4.147   5.895  0.00  0.00    +0.000 OA
BRANCH  24  25
ATOM     25  PB  GTP C 217      27.617   4.870   4.609  0.00  0.00    +0.000 P 
ATOM     26  O1B GTP C 217      28.678   5.670   3.895  0.00  0.00    +0.000 OA
ATOM     27  O2B GTP C 217      26.965   3.841   3.711  0.00  0.00    +0.000 OA
BRANCH  25  28
ATOM     28  O3B GTP C 217      26.503   5.795   5.308  0.00  0.00    +0.000 OA
BRANCH  28  29
ATOM     29  PG  GTP C 217      25.700   6.927   4.495  0.00  0.00    +0.000 P 
ATOM     30  O1G GTP C 217      26.429   8.238   4.681  0.00  0.00    +0.000 OA
ATOM     31  O2G GTP C 217      24.281   6.941   5.018  0.00  0.00    +0.000 OA
ATOM     32  O3G GTP C 217      25.612   6.595   3.024  0.00  0.00    +0.000 OA
ENDBRANCH  28  29
ENDBRANCH  25  28
ENDBRANCH  24  25
ENDBRANCH  21  24
ENDBRANCH  20  21
ENDBRANCH  19  20
ENDBRANCH   1  19
TORSDOF 8
ENDMDL
MODEL 5
REMARK VINA RESULT:      -4.2      2.967      6.352
REMARK  Name = ligand_pdbs\GTP.pdb
REMARK  8 active torsions:
REMARK  status: ('A' for Active; 'I' for Inactive)
REMARK    1  A    between atoms: PG_1  and  O3B_5
REMARK    2  A    between atoms: O3B_5  and  PB_6
REMARK    3  A    between atoms: PB_6  and  O3A_9
REMARK    4  A    between atoms: O3A_9  and  PA_10
REMARK    5  A    between atoms: PA_10  and  O5'_13
REMARK    6  A    between atoms: O5'_13  and  C5'_14
REMARK    7  A    between atoms: C5'_14  and  C4'_15
REMARK    8  A    between atoms: C1'_21  and  N9_22
REMARK                            x       y       z     vdW  Elec       q    Type
REMARK                         _______ _______ _______ _____ _____    ______ ____
ROOT
ATOM      1  C4' GTP C 217      28.749   2.305   4.627  0.00  0.00    +0.000 C 
ATOM      2  O4' GTP C 217      28.957   3.680   4.812  0.00  0.00    +0.000 OA
ATOM      3  C3' GTP C 217      27.985   1.813   5.842  0.00  0.00    +0.000 C 
ATOM      4  O3' GTP C 217      28.915   1.377   6.818  0.00  0.00    +0.000 OA
ATOM      5  C2' GTP C 217      27.321   3.052   6.364  0.00  0.00    +0.000 C 
ATOM      6  O2' GTP C 217      27.225   2.976   7.765  0.00  0.00    +0.000 OA
ATOM      7  C1' GTP C 217      28.262   4.168   5.929  0.00  0.00    +0.000 C 
ENDROOT
BRANCH   7   8
ATOM      8  N9  GTP C 217      27.452   5.324   5.512  0.00  0.00    +0.000 N 
ATOM      9  C8  GTP C 217      27.831   6.638   5.467  0.00  0.00    +0.000 C 
ATOM     10  N7  GTP C 217      26.773   7.367   5.041  0.00  0.00    +0.000 NA
ATOM     11  C5  GTP C 217      25.720   6.533   4.840  0.00  0.00    +0.000 C 
ATOM     12  C6  GTP C 217      24.408   6.739   4.410  0.00  0.00    +0.000 C 
ATOM     13  O6  GTP C 217      23.995   7.868   4.130  0.00  0.00    +0.000 OA
ATOM     14  N1  GTP C 217      23.559   5.659   4.301  0.00  0.00    +0.000 NA
ATOM     15  C2  GTP C 217      24.009   4.392   4.616  0.00  0.00    +0.000 C 
ATOM     16  N2  GTP C 217      23.206   3.344   4.512  0.00  0.00    +0.000 NA
ATOM     17  N3  GTP C 217      25.304   4.198   5.037  0.00  0.00    +0.000 NA
ATOM     18  C4  GTP C 217      26.142   5.250   5.142  0.00  0.00    +0.000 C 
ENDBRANCH   7   8
BRANCH   1  19
ATOM     19  C5' GTP C 217      27.922   2.220   3.362  0.00  0.00    +0.000 C 
BRANCH  19  20
ATOM     20  O5' GTP C 217      26.595   1.924   3.678  0.00  0.00    +0.000 OA
BRANCH  20  21
ATOM     21  PA  GTP C 217      25.871   0.762   2.845  0.00  0.00    +0.000 P 
ATOM     22  O1A GTP C 217      24.576   0.427   3.553  0.00  0.00    +0.000 OA
ATOM     23  O2A GTP C 217      25.659   1.128   1.393  0.00  0.00    +0.000 OA
BRANCH  21  24
ATOM     24  O3A GTP C 217      26.890  -0.458   2.978  0.00  0.00    +0.000 OA
BRANCH  24  25
ATOM     25  PB  GTP C 217      26.948  -1.317   4.325  0.00  0.00    +0.000 P 
ATOM     26  O1B GTP C 217      26.138  -0.654   5.411  0.00  0.00    +0.000 OA
ATOM     27  O2B GTP C 217      26.491  -2.733   4.044  0.00  0.00    +0.000 OA
BRANCH  25  28
ATOM     28  O3B GTP C 217      28.528  -1.283   4.616  0.00  0.00    +0.000 OA
BRANCH  28  29
ATOM     29  PG  GTP C 217      29.615  -1.602   3.474  0.00  0.00    +0.000 P 
ATOM     30  O1G GTP C 217      29.933  -0.309   2.759  0.00  0.00    +0.000 OA
ATOM     31  O2G GTP C 217      29.027  -2.666   2.573  0.00  0.00    +0.000 OA
ATOM     32  O3G GTP C 217      30.878  -2.187   4.060  0.00  0.00    +0.000 OA
ENDBRANCH  28  29
ENDBRANCH  25  28
ENDBRANCH  24  25
ENDBRANCH  21  24
ENDBRANCH  20  21
ENDBRANCH  19  20
ENDBRANCH   1  19
TORSDOF 8
ENDMDL
MODEL 6
REMARK VINA RESULT:      -3.9      2.300      4.242
REMARK  Name = ligand_pdbs\GTP.pdb
REMARK  8 active torsions:
REMARK  status: ('A' for Active; 'I' for Inactive)
REMARK    1  A    between atoms: PG_1  and  O3B_5
REMARK    2  A    between atoms: O3B_5  and  PB_6
REMARK    3  A    between atoms: PB_6  and  O3A_9
REMARK    4  A    between atoms: O3A_9  and  PA_10
REMARK    5  A    between atoms: PA_10  and  O5'_13
REMARK    6  A    between atoms: O5'_13  and  C5'_14
REMARK    7  A    between atoms: C5'_14  and  C4'_15
REMARK    8  A    between atoms: C1'_21  and  N9_22
REMARK                            x       y       z     vdW  Elec       q    Type
REMARK                         _______ _______ _______ _____ _____    ______ ____
ROOT
ATOM      1  C4' GTP C 217      29.334   1.982   6.812  0.00  0.00    +0.000 C 
ATOM      2  O4' GTP C 217      28.260   1.194   6.370  0.00  0.00    +0.000 OA
ATOM      3  C3' GTP C 217      30.602   1.228   6.455  0.00  0.00    +0.000 C 
ATOM      4  O3' GTP C 217      30.965   0.406   7.550  0.00  0.00    +0.000 OA
ATOM      5  C2' GTP C 217      30.173   0.332   5.332  0.00  0.00    +0.000 C 
ATOM      6  O2' GTP C 217      30.906  -0.867   5.386  0.00  0.00    +0.000 OA
ATOM      7  C1' GTP C 217      28.694   0.095   5.612  0.00  0.00    +0.000 C 
ENDROOT
BRANCH   7   8
ATOM      8  N9  GTP C 217      27.973   0.092   4.329  0.00  0.00    +0.000 N 
ATOM      9  C8  GTP C 217      28.400  -0.409   3.131  0.00  0.00    +0.000 C 
ATOM     10  N7  GTP C 217      27.431  -0.188   2.212  0.00  0.00    +0.000 NA
ATOM     11  C5  GTP C 217      26.404   0.471   2.809  0.00  0.00    +0.000 C 
ATOM     12  C6  GTP C 217      25.174   0.939   2.346  0.00  0.00    +0.000 C 
ATOM     13  O6  GTP C 217      24.834   0.794   1.168  0.00  0.00    +0.000 OA
ATOM     14  N1  GTP C 217      24.326   1.581   3.223  0.00  0.00    +0.000 NA
ATOM     15  C2  GTP C 217      24.698   1.754   4.542  0.00  0.00    +0.000 C 
ATOM     16  N2  GTP C 217      23.893   2.365   5.397  0.00  0.00    +0.000 NA
ATOM     17  N3  GTP C 217      25.912   1.287   4.989  0.00  0.00    +0.000 NA
ATOM     18  C4  GTP C 217      26.745   0.653   4.138  0.00  0.00    +0.000 C 
ENDBRANCH   7   8
BRANCH   1  19
ATOM     19  C5' GTP C 217      29.198   3.270   6.027  0.00  0.00    +0.000 C 
BRANCH  19  20
ATOM     20  O5' GTP C 217      27.875   3.712   6.061  0.00  0.00    +0.000 OA
BRANCH  20  21
ATOM     21  PA  GTP C 217      27.352   4.594   4.829  0.00  0.00    +0.000 P 
ATOM     22  O1A GTP C 217      28.205   5.842   4.761  0.00  0.00    +0.000 OA
ATOM     23  O2A GTP C 217      27.341   3.828   3.525  0.00  0.00    +0.000 OA
BRANCH  21  24
ATOM     24  O3A GTP C 217      25.869   4.979   5.272  0.00  0.00    +0.000 OA
BRANCH  24  25
ATOM     25  PB  GTP C 217      24.933   5.835   4.300  0.00  0.00    +0.000 P 
ATOM     26  O1B GTP C 217      25.713   6.313   3.101  0.00  0.00    +0.000 OA
ATOM     27  O2B GTP C 217      23.719   5.018   3.914  0.00  0.00    +0.000 OA
BRANCH  25  28
ATOM     28  O3B GTP C 217      24.514   7.031   5.289  0.00  0.00    +0.000 OA
BRANCH  28  29
ATOM     29  PG  GTP C 217      25.438   8.332   5.496  0.00  0.00    +0.000 P 
ATOM     30  O1G GTP C 217      25.747   8.905   4.132  0.00  0.00    +0.000 OA
ATOM     31  O2G GTP C 217      26.666   7.899   6.266  0.00  0.00    +0.000 OA
ATOM     32  O3G GTP C 217      24.745   9.373   6.344  0.00  0.00    +0.000 OA
ENDBRANCH  28  29
ENDBRANCH  25  28
ENDBRANCH  24  25
ENDBRANCH  21  24
ENDBRANCH  20  21
ENDBRANCH  19  20
ENDBRANCH   1  19
TORSDOF 8
ENDMDL
MODEL 7
REMARK VINA RESULT:      -3.9      2.956      5.924
REMARK  Name = ligand_pdbs\GTP.pdb
REMARK  8 active torsions:
REMARK  status: ('A' for Active; 'I' for Inactive)
REMARK    1  A    between atoms: PG_1  and  O3B_5
REMARK    2  A    between atoms: O3B_5  and  PB_6
REMARK    3  A    between atoms: PB_6  and  O3A_9
REMARK    4  A    between atoms: O3A_9  and  PA_10
REMARK    5  A    between atoms: PA_10  and  O5'_13
REMARK    6  A    between atoms: O5'_13  and  C5'_14
REMARK    7  A    between atoms: C5'_14  and  C4'_15
REMARK    8  A    between atoms: C1'_21  and  N9_22
REMARK                            x       y       z     vdW  Elec       q    Type
REMARK                         _______ _______ _______ _____ _____    ______ ____
ROOT
ATOM      1  C4' GTP C 217      29.906   1.681   5.323  0.00  0.00    +0.000 C 
ATOM      2  O4' GTP C 217      28.953   2.466   4.657  0.00  0.00    +0.000 OA
ATOM      3  C3' GTP C 217      30.230   2.398   6.622  0.00  0.00    +0.000 C 
ATOM      4  O3' GTP C 217      31.332   3.260   6.401  0.00  0.00    +0.000 OA
ATOM      5  C2' GTP C 217      29.021   3.252   6.861  0.00  0.00    +0.000 C 
ATOM      6  O2' GTP C 217      29.409   4.440   7.505  0.00  0.00    +0.000 OA
ATOM      7  C1' GTP C 217      28.495   3.524   5.457  0.00  0.00    +0.000 C 
ENDROOT
BRANCH   7   8
ATOM      8  N9  GTP C 217      27.024   3.484   5.496  0.00  0.00    +0.000 N 
ATOM      9  C8  GTP C 217      26.228   2.482   5.979  0.00  0.00    +0.000 C 
ATOM     10  N7  GTP C 217      24.937   2.849   5.804  0.00  0.00    +0.000 NA
ATOM     11  C5  GTP C 217      24.905   4.061   5.192  0.00  0.00    +0.000 C 
ATOM     12  C6  GTP C 217      23.865   4.895   4.780  0.00  0.00    +0.000 C 
ATOM     13  O6  GTP C 217      22.684   4.575   4.944  0.00  0.00    +0.000 OA
ATOM     14  N1  GTP C 217      24.166   6.096   4.176  0.00  0.00    +0.000 NA
ATOM     15  C2  GTP C 217      25.484   6.462   3.983  0.00  0.00    +0.000 C 
ATOM     16  N2  GTP C 217      25.789   7.615   3.408  0.00  0.00    +0.000 NA
ATOM     17  N3  GTP C 217      26.503   5.634   4.394  0.00  0.00    +0.000 NA
ATOM     18  C4  GTP C 217      26.215   4.458   4.991  0.00  0.00    +0.000 C 
ENDBRANCH   7   8
BRANCH   1  19
ATOM     19  C5' GTP C 217      29.200   0.363   5.563  0.00  0.00    +0.000 C 
BRANCH  19  20
ATOM     20  O5' GTP C 217      29.958  -0.686   5.040  0.00  0.00    +0.000 OA
BRANCH  20  21
ATOM     21  PA  GTP C 217      29.518  -1.290   3.622  0.00  0.00    +0.000 P 
ATOM     22  O1A GTP C 217      30.459  -0.734   2.574  0.00  0.00    +0.000 OA
ATOM     23  O2A GTP C 217      29.475  -2.802   3.618  0.00  0.00    +0.000 OA
BRANCH  21  24
ATOM     24  O3A GTP C 217      28.059  -0.682   3.414  0.00  0.00    +0.000 OA
BRANCH  24  25
ATOM     25  PB  GTP C 217      26.786  -1.399   4.062  0.00  0.00    +0.000 P 
ATOM     26  O1B GTP C 217      26.392  -2.610   3.253  0.00  0.00    +0.000 OA
ATOM     27  O2B GTP C 217      27.076  -1.737   5.509  0.00  0.00    +0.000 OA
BRANCH  25  28
ATOM     28  O3B GTP C 217      25.709  -0.208   3.966  0.00  0.00    +0.000 OA
BRANCH  28  29
ATOM     29  PG  GTP C 217      25.696   0.836   2.743  0.00  0.00    +0.000 P 
ATOM     30  O1G GTP C 217      24.381   1.580   2.781  0.00  0.00    +0.000 OA
ATOM     31  O2G GTP C 217      25.910   0.046   1.470  0.00  0.00    +0.000 OA
ATOM     32  O3G GTP C 217      26.841   1.815   2.839  0.00  0.00    +0.000 OA
ENDBRANCH  28  29
ENDBRANCH  25  28
ENDBRANCH  24  25
ENDBRANCH  21  24
ENDBRANCH  20  21
ENDBRANCH  19  20
ENDBRANCH   1  19
TORSDOF 8
ENDMDL
MODEL 8
REMARK VINA RESULT:      -3.7      3.039      7.372
REMARK  Name = ligand_pdbs\GTP.pdb
REMARK  8 active torsions:
REMARK  status: ('A' for Active; 'I' for Inactive)
REMARK    1  A    between atoms: PG_1  and  O3B_5
REMARK    2  A    between atoms: O3B_5  and  PB_6
REMARK    3  A    between atoms: PB_6  and  O3A_9
REMARK    4  A    between atoms: O3A_9  and  PA_10
REMARK    5  A    between atoms: PA_10  and  O5'_13
REMARK    6  A    between atoms: O5'_13  and  C5'_14
REMARK    7  A    between atoms: C5'_14  and  C4'_15
REMARK    8  A    between atoms: C1'_21  and  N9_22
REMARK                            x       y       z     vdW  Elec       q    Type
REMARK                         _______ _______ _______ _____ _____    ______ ____
ROOT
ATOM      1  C4' GTP C 217      27.492   6.470   4.893  0.00  0.00    +0.000 C 
ATOM      2  O4' GTP C 217      26.832   5.693   3.928  0.00  0.00    +0.000 OA
ATOM      3  C3' GTP C 217      26.471   7.458   5.429  0.00  0.00    +0.000 C 
ATOM      4  O3' GTP C 217      26.541   8.645   4.660  0.00  0.00    +0.000 OA
ATOM      5  C2' GTP C 217      25.157   6.798   5.134  0.00  0.00    +0.000 C 
ATOM      6  O2' GTP C 217      24.191   7.783   4.863  0.00  0.00    +0.000 OA
ATOM      7  C1' GTP C 217      25.452   5.952   3.902  0.00  0.00    +0.000 C 
ENDROOT
BRANCH   7   8
ATOM      8  N9  GTP C 217      24.731   4.676   4.030  0.00  0.00    +0.000 N 
ATOM      9  C8  GTP C 217      23.478   4.472   4.539  0.00  0.00    +0.000 C 
ATOM     10  N7  GTP C 217      23.211   3.145   4.482  0.00  0.00    +0.000 NA
ATOM     11  C5  GTP C 217      24.291   2.504   3.965  0.00  0.00    +0.000 C 
ATOM     12  C6  GTP C 217      24.561   1.163   3.687  0.00  0.00    +0.000 C 
ATOM     13  O6  GTP C 217      23.731   0.280   3.920  0.00  0.00    +0.000 OA
ATOM     14  N1  GTP C 217      25.782   0.822   3.146  0.00  0.00    +0.000 NA
ATOM     15  C2  GTP C 217      26.720   1.802   2.885  0.00  0.00    +0.000 C 
ATOM     16  N2  GTP C 217      27.896   1.490   2.361  0.00  0.00    +0.000 NA
ATOM     17  N3  GTP C 217      26.444   3.121   3.161  0.00  0.00    +0.000 NA
ATOM     18  C4  GTP C 217      25.249   3.463   3.686  0.00  0.00    +0.000 C 
ENDBRANCH   7   8
BRANCH   1  19
ATOM     19  C5' GTP C 217      27.921   5.469   5.946  0.00  0.00    +0.000 C 
BRANCH  19  20
ATOM     20  O5' GTP C 217      28.269   4.260   5.342  0.00  0.00    +0.000 OA
BRANCH  20  21
ATOM     21  PA  GTP C 217      28.414   2.971   6.282  0.00  0.00    +0.000 P 
ATOM     22  O1A GTP C 217      29.535   3.242   7.264  0.00  0.00    +0.000 OA
ATOM     23  O2A GTP C 217      27.120   2.600   6.970  0.00  0.00    +0.000 OA
BRANCH  21  24
ATOM     24  O3A GTP C 217      28.859   1.832   5.258  0.00  0.00    +0.000 OA
BRANCH  24  25
ATOM     25  PB  GTP C 217      28.730   0.291   5.660  0.00  0.00    +0.000 P 
ATOM     26  O1B GTP C 217      29.493   0.010   6.931  0.00  0.00    +0.000 OA
ATOM     27  O2B GTP C 217      27.268  -0.086   5.767  0.00  0.00    +0.000 OA
BRANCH  25  28
ATOM     28  O3B GTP C 217      29.396  -0.397   4.369  0.00  0.00    +0.000 OA
BRANCH  28  29
ATOM     29  PG  GTP C 217      28.904  -1.824   3.811  0.00  0.00    +0.000 P 
ATOM     30  O1G GTP C 217      30.127  -2.684   3.591  0.00  0.00    +0.000 OA
ATOM     31  O2G GTP C 217      28.106  -1.568   2.552  0.00  0.00    +0.000 OA
ATOM     32  O3G GTP C 217      27.968  -2.504   4.782  0.00  0.00    +0.000 OA
ENDBRANCH  28  29
ENDBRANCH  25  28
ENDBRANCH  24  25
ENDBRANCH  21  24
ENDBRANCH  20  21
ENDBRANCH  19  20
ENDBRANCH   1  19
TORSDOF 8
ENDMDL
MODEL 9
REMARK VINA RESULT:      -3.7      1.940      4.372
REMARK  Name = ligand_pdbs\GTP.pdb
REMARK  8 active torsions:
REMARK  status: ('A' for Active; 'I' for Inactive)
REMARK    1  A    between atoms: PG_1  and  O3B_5
REMARK    2  A    between atoms: O3B_5  and  PB_6
REMARK    3  A    between atoms: PB_6  and  O3A_9
REMARK    4  A    between atoms: O3A_9  and  PA_10
REMARK    5  A    between atoms: PA_10  and  O5'_13
REMARK    6  A    between atoms: O5'_13  and  C5'_14
REMARK    7  A    between atoms: C5'_14  and  C4'_15
REMARK    8  A    between atoms: C1'_21  and  N9_22
REMARK                            x       y       z     vdW  Elec       q    Type
REMARK                         _______ _______ _______ _____ _____    ______ ____
ROOT
ATOM      1  C4' GTP C 217      28.569   3.619   5.989  0.00  0.00    +0.000 C 
ATOM      2  O4' GTP C 217      27.732   2.586   6.436  0.00  0.00    +0.000 OA
ATOM      3  C3' GTP C 217      29.978   3.057   5.959  0.00  0.00    +0.000 C 
ATOM      4  O3' GTP C 217      30.596   3.314   7.207  0.00  0.00    +0.000 OA
ATOM      5  C2' GTP C 217      29.762   1.576   5.852  0.00  0.00    +0.000 C 
ATOM      6  O2' GTP C 217      30.795   0.904   6.529  0.00  0.00    +0.000 OA
ATOM      7  C1' GTP C 217      28.417   1.364   6.535  0.00  0.00    +0.000 C 
ENDROOT
BRANCH   7   8
ATOM      8  N9  GTP C 217      27.669   0.343   5.782  0.00  0.00    +0.000 N 
ATOM      9  C8  GTP C 217      26.318   0.133   5.775  0.00  0.00    +0.000 C 
ATOM     10  N7  GTP C 217      26.059  -0.917   4.960  0.00  0.00    +0.000 NA
ATOM     11  C5  GTP C 217      27.235  -1.390   4.470  0.00  0.00    +0.000 C 
ATOM     12  C6  GTP C 217      27.555  -2.435   3.601  0.00  0.00    +0.000 C 
ATOM     13  O6  GTP C 217      26.678  -3.156   3.116  0.00  0.00    +0.000 OA
ATOM     14  N1  GTP C 217      28.876  -2.665   3.286  0.00  0.00    +0.000 NA
ATOM     15  C2  GTP C 217      29.865  -1.867   3.827  0.00  0.00    +0.000 C 
ATOM     16  N2  GTP C 217      31.139  -2.073   3.529  0.00  0.00    +0.000 NA
ATOM     17  N3  GTP C 217      29.540  -0.839   4.680  0.00  0.00    +0.000 NA
ATOM     18  C4  GTP C 217      28.248  -0.604   4.990  0.00  0.00    +0.000 C 
ENDBRANCH   7   8
BRANCH   1  19
ATOM     19  C5' GTP C 217      28.055   3.940   4.602  0.00  0.00    +0.000 C 
BRANCH  19  20
ATOM     20  O5' GTP C 217      27.389   2.834   4.071  0.00  0.00    +0.000 OA
BRANCH  20  21
ATOM     21  PA  GTP C 217      25.842   3.006   3.690  0.00  0.00    +0.000 P 
ATOM     22  O1A GTP C 217      25.638   2.408   2.315  0.00  0.00    +0.000 OA
ATOM     23  O2A GTP C 217      24.915   2.409   4.724  0.00  0.00    +0.000 OA
BRANCH  21  24
ATOM     24  O3A GTP C 217      25.667   4.590   3.621  0.00  0.00    +0.000 OA
BRANCH  24  25
ATOM     25  PB  GTP C 217      24.619   5.329   4.575  0.00  0.00    +0.000 P 
ATOM     26  O1B GTP C 217      23.223   4.817   4.323  0.00  0.00    +0.000 OA
ATOM     27  O2B GTP C 217      25.045   5.166   6.018  0.00  0.00    +0.000 OA
BRANCH  25  28
ATOM     28  O3B GTP C 217      24.822   6.850   4.096  0.00  0.00    +0.000 OA
BRANCH  28  29
ATOM     29  PG  GTP C 217      25.789   7.870   4.878  0.00  0.00    +0.000 P 
ATOM     30  O1G GTP C 217      27.058   7.130   5.231  0.00  0.00    +0.000 OA
ATOM     31  O2G GTP C 217      25.029   8.383   6.081  0.00  0.00    +0.000 OA
ATOM     32  O3G GTP C 217      26.119   9.077   4.032  0.00  0.00    +0.000 OA
ENDBRANCH  28  29
ENDBRANCH  25  28
ENDBRANCH  24  25
ENDBRANCH  21  24
ENDBRANCH  20  21
ENDBRANCH  19  20
ENDBRANCH   1  19
TORSDOF 8
ENDMDL
