MODEL 1
REMARK VINA RESULT:      -7.6      0.000      0.000
REMARK  Name = ligand_pdbs\HFT.pdb
REMARK  4 active torsions:
REMARK  status: ('A' for Active; 'I' for Inactive)
REMARK    1  A    between atoms: C7_2  and  C3_5
REMARK    2  A    between atoms: C4_7  and  N1_8
REMARK    3  A    between atoms: C1_13  and  N9_14
REMARK    4  A    between atoms: C10_15  and  C11_17
REMARK                            x       y       z     vdW  Elec       q    Type
REMARK                         _______ _______ _______ _____ _____    ______ ____
ROOT
ATOM      1  C3  HFT A   1      25.247   4.019   4.229  0.00  0.00    +0.000 A 
ATOM      2  C2  HFT A   1      25.651   2.690   4.077  0.00  0.00    +0.000 A 
ATOM      3  C4  HFT A   1      26.185   5.022   3.970  0.00  0.00    +0.000 A 
ATOM      4  C5  HFT A   1      27.469   4.679   3.554  0.00  0.00    +0.000 A 
ATOM      5  C6  HFT A   1      27.849   3.351   3.404  0.00  0.00    +0.000 A 
ATOM      6  C1  HFT A   1      26.936   2.338   3.672  0.00  0.00    +0.000 A 
ENDROOT
BRANCH   1   8
ATOM      7  F1  HFT A   1      23.003   3.253   4.433  0.00  0.00    +0.000 F 
ATOM      8  C7  HFT A   1      23.785   4.313   4.615  0.00  0.00    +0.000 C 
ATOM      9  F2  HFT A   1      23.696   4.634   5.903  0.00  0.00    +0.000 F 
ATOM     10  F3  HFT A   1      23.252   5.282   3.877  0.00  0.00    +0.000 F 
ENDBRANCH   1   8
BRANCH   3  11
ATOM     11  N1  HFT A   1      25.980   6.314   4.223  0.00  0.00    +0.000 N 
ATOM     12  O2  HFT A   1      26.440   6.866   5.449  0.00  0.00    +0.000 OA
ATOM     13  O1  HFT A   1      25.361   7.199   3.301  0.00  0.00    +0.000 OA
ENDBRANCH   3  11
BRANCH   6  14
ATOM     14  N9  HFT A   1      27.356   1.078   3.552  0.00  0.00    +0.000 NA
ATOM     15  C10 HFT A   1      27.776   0.282   4.534  0.00  0.00    +0.000 C 
ATOM     16  O10 HFT A   1      27.845   0.603   5.720  0.00  0.00    +0.000 OA
BRANCH  15  17
ATOM     17  C11 HFT A   1      28.197  -1.116   4.074  0.00  0.00    +0.000 C 
ATOM     18  C12 HFT A   1      27.356  -2.159   4.813  0.00  0.00    +0.000 C 
ATOM     19  C13 HFT A   1      27.974  -1.233   2.565  0.00  0.00    +0.000 C 
ATOM     20  O11 HFT A   1      29.581  -1.305   4.381  0.00  0.00    +0.000 OA
ENDBRANCH  15  17
ENDBRANCH   6  14
TORSDOF 4
ENDMDL
MODEL 2
REMARK VINA RESULT:      -7.5      3.372      6.758
REMARK  Name = ligand_pdbs\HFT.pdb
REMARK  4 active torsions:
REMARK  status: ('A' for Active; 'I' for Inactive)
REMARK    1  A    between atoms: C7_2  and  C3_5
REMARK    2  A    between atoms: C4_7  and  N1_8
REMARK    3  A    between atoms: C1_13  and  N9_14
REMARK    4  A    between atoms: C10_15  and  C11_17
REMARK                            x       y       z     vdW  Elec       q    Type
REMARK                         _______ _______ _______ _____ _____    ______ ____
ROOT
ATOM      1  C3  HFT A   1      28.239   0.890   5.362  0.00  0.00    +0.000 A 
ATOM      2  C2  HFT A   1      27.719   2.185   5.420  0.00  0.00    +0.000 A 
ATOM      3  C4  HFT A   1      27.707   0.013   4.413  0.00  0.00    +0.000 A 
ATOM      4  C5  HFT A   1      26.706   0.450   3.549  0.00  0.00    +0.000 A 
ATOM      5  C6  HFT A   1      26.206   1.745   3.620  0.00  0.00    +0.000 A 
ATOM      6  C1  HFT A   1      26.711   2.628   4.567  0.00  0.00    +0.000 A 
ENDROOT
BRANCH   1   8
ATOM      7  F1  HFT A   1      30.425  -0.010   5.631  0.00  0.00    +0.000 F 
ATOM      8  C7  HFT A   1      29.401   0.511   6.300  0.00  0.00    +0.000 C 
ATOM      9  F2  HFT A   1      29.865   1.587   6.929  0.00  0.00    +0.000 F 
ATOM     10  F3  HFT A   1      29.051  -0.410   7.193  0.00  0.00    +0.000 F 
ENDBRANCH   1   8
BRANCH   3  11
ATOM     11  N1  HFT A   1      28.000  -1.287   4.354  0.00  0.00    +0.000 N 
ATOM     12  O2  HFT A   1      27.209  -2.213   5.084  0.00  0.00    +0.000 OA
ATOM     13  O1  HFT A   1      29.045  -1.812   3.550  0.00  0.00    +0.000 OA
ENDBRANCH   3  11
BRANCH   6  14
ATOM     14  N9  HFT A   1      26.175   3.848   4.624  0.00  0.00    +0.000 NA
ATOM     15  C10 HFT A   1      26.605   4.936   3.990  0.00  0.00    +0.000 C 
ATOM     16  O10 HFT A   1      27.586   4.978   3.248  0.00  0.00    +0.000 OA
BRANCH  15  17
ATOM     17  C11 HFT A   1      25.774   6.194   4.262  0.00  0.00    +0.000 C 
ATOM     18  C12 HFT A   1      24.425   5.782   4.854  0.00  0.00    +0.000 C 
ATOM     19  C13 HFT A   1      26.530   7.087   5.248  0.00  0.00    +0.000 C 
ATOM     20  O11 HFT A   1      25.571   6.887   3.029  0.00  0.00    +0.000 OA
ENDBRANCH  15  17
ENDBRANCH   6  14
TORSDOF 4
ENDMDL
MODEL 3
REMARK VINA RESULT:      -7.3      2.715      6.420
REMARK  Name = ligand_pdbs\HFT.pdb
REMARK  4 active torsions:
REMARK  status: ('A' for Active; 'I' for Inactive)
REMARK    1  A    between atoms: C7_2  and  C3_5
REMARK    2  A    between atoms: C4_7  and  N1_8
REMARK    3  A    between atoms: C1_13  and  N9_14
REMARK    4  A    between atoms: C10_15  and  C11_17
REMARK                            x       y       z     vdW  Elec       q    Type
REMARK                         _______ _______ _______ _____ _____    ______ ____
ROOT
ATOM      1  C3  HFT A   1      27.025   1.190   3.944  0.00  0.00    +0.000 A 
ATOM      2  C2  HFT A   1      26.743   2.555   3.849  0.00  0.00    +0.000 A 
ATOM      3  C4  HFT A   1      27.704   0.739   5.079  0.00  0.00    +0.000 A 
ATOM      4  C5  HFT A   1      28.056   1.641   6.080  0.00  0.00    +0.000 A 
ATOM      5  C6  HFT A   1      27.762   2.995   5.968  0.00  0.00    +0.000 A 
ATOM      6  C1  HFT A   1      27.101   3.466   4.839  0.00  0.00    +0.000 A 
ENDROOT
BRANCH   1   8
ATOM      7  F1  HFT A   1      25.737  -0.708   3.309  0.00  0.00    +0.000 F 
ATOM      8  C7  HFT A   1      26.528   0.248   2.831  0.00  0.00    +0.000 C 
ATOM      9  F2  HFT A   1      25.813   0.920   1.933  0.00  0.00    +0.000 F 
ATOM     10  F3  HFT A   1      27.526  -0.385   2.222  0.00  0.00    +0.000 F 
ENDBRANCH   1   8
BRANCH   3  11
ATOM     11  N1  HFT A   1      28.168  -0.502   5.224  0.00  0.00    +0.000 N 
ATOM     12  O2  HFT A   1      29.525  -0.780   4.906  0.00  0.00    +0.000 OA
ATOM     13  O1  HFT A   1      27.385  -1.571   5.733  0.00  0.00    +0.000 OA
ENDBRANCH   3  11
BRANCH   6  14
ATOM     14  N9  HFT A   1      26.874   4.777   4.757  0.00  0.00    +0.000 NA
ATOM     15  C10 HFT A   1      25.726   5.403   5.008  0.00  0.00    +0.000 C 
ATOM     16  O10 HFT A   1      24.682   4.850   5.352  0.00  0.00    +0.000 OA
BRANCH  15  17
ATOM     17  C11 HFT A   1      25.782   6.922   4.821  0.00  0.00    +0.000 C 
ATOM     18  C12 HFT A   1      27.198   7.410   5.131  0.00  0.00    +0.000 C 
ATOM     19  C13 HFT A   1      25.414   7.260   3.375  0.00  0.00    +0.000 C 
ATOM     20  O11 HFT A   1      24.852   7.532   5.719  0.00  0.00    +0.000 OA
ENDBRANCH  15  17
ENDBRANCH   6  14
TORSDOF 4
ENDMDL
MODEL 4
REMARK VINA RESULT:      -7.1      3.455      6.732
REMARK  Name = ligand_pdbs\HFT.pdb
REMARK  4 active torsions:
REMARK  status: ('A' for Active; 'I' for Inactive)
REMARK    1  A    between atoms: C7_2  and  C3_5
REMARK    2  A    between atoms: C4_7  and  N1_8
REMARK    3  A    between atoms: C1_13  and  N9_14
REMARK    4  A    between atoms: C10_15  and  C11_17
REMARK                            x       y       z     vdW  Elec       q    Type
REMARK                         _______ _______ _______ _____ _____    ______ ____
ROOT
ATOM      1  C3  HFT A   1      28.219   0.759   4.847  0.00  0.00    +0.000 A 
ATOM      2  C2  HFT A   1      28.007   2.140   4.851  0.00  0.00    +0.000 A 
ATOM      3  C4  HFT A   1      27.414  -0.024   4.016  0.00  0.00    +0.000 A 
ATOM      4  C5  HFT A   1      26.455   0.581   3.209  0.00  0.00    +0.000 A 
ATOM      5  C6  HFT A   1      26.264   1.958   3.223  0.00  0.00    +0.000 A 
ATOM      6  C1  HFT A   1      27.043   2.753   4.055  0.00  0.00    +0.000 A 
ENDROOT
BRANCH   1   8
ATOM      7  F1  HFT A   1      30.113  -0.671   5.021  0.00  0.00    +0.000 F 
ATOM      8  C7  HFT A   1      29.356   0.178   5.710  0.00  0.00    +0.000 C 
ATOM      9  F2  HFT A   1      30.161   1.146   6.137  0.00  0.00    +0.000 F 
ATOM     10  F3  HFT A   1      28.899  -0.513   6.750  0.00  0.00    +0.000 F 
ENDBRANCH   1   8
BRANCH   3  11
ATOM     11  N1  HFT A   1      27.405  -1.358   4.031  0.00  0.00    +0.000 N 
ATOM     12  O2  HFT A   1      28.040  -2.070   2.978  0.00  0.00    +0.000 OA
ATOM     13  O1  HFT A   1      26.832  -2.119   5.082  0.00  0.00    +0.000 OA
ENDBRANCH   3  11
BRANCH   6  14
ATOM     14  N9  HFT A   1      26.798   4.064   4.065  0.00  0.00    +0.000 NA
ATOM     15  C10 HFT A   1      26.104   4.738   4.979  0.00  0.00    +0.000 C 
ATOM     16  O10 HFT A   1      25.567   4.236   5.967  0.00  0.00    +0.000 OA
BRANCH  15  17
ATOM     17  C11 HFT A   1      25.997   6.241   4.708  0.00  0.00    +0.000 C 
ATOM     18  C12 HFT A   1      27.297   6.920   5.145  0.00  0.00    +0.000 C 
ATOM     19  C13 HFT A   1      25.765   6.463   3.212  0.00  0.00    +0.000 C 
ATOM     20  O11 HFT A   1      24.900   6.768   5.458  0.00  0.00    +0.000 OA
ENDBRANCH  15  17
ENDBRANCH   6  14
TORSDOF 4
ENDMDL
MODEL 5
REMARK VINA RESULT:      -7.0      2.170      2.881
REMARK  Name = ligand_pdbs\HFT.pdb
REMARK  4 active torsions:
REMARK  status: ('A' for Active; 'I' for Inactive)
REMARK    1  A    between atoms: C7_2  and  C3_5
REMARK    2  A    between atoms: C4_7  and  N1_8
REMARK    3  A    between atoms: C1_13  and  N9_14
REMARK    4  A    between atoms: C10_15  and  C11_17
REMARK                            x       y       z     vdW  Elec       q    Type
REMARK                         _______ _______ _______ _____ _____    ______ ____
ROOT
ATOM      1  C3  HFT A   1      26.409   3.937   3.882  0.00  0.00    +0.000 A 
ATOM      2  C2  HFT A   1      26.976   2.697   3.573  0.00  0.00    +0.000 A 
ATOM      3  C4  HFT A   1      25.238   3.949   4.644  0.00  0.00    +0.000 A 
ATOM      4  C5  HFT A   1      24.687   2.750   5.087  0.00  0.00    +0.000 A 
ATOM      5  C6  HFT A   1      25.270   1.527   4.774  0.00  0.00    +0.000 A 
ATOM      6  C1  HFT A   1      26.426   1.493   4.003  0.00  0.00    +0.000 A 
ENDROOT
BRANCH   1   8
ATOM      7  F1  HFT A   1      28.101   4.956   2.555  0.00  0.00    +0.000 F 
ATOM      8  C7  HFT A   1      27.127   5.220   3.420  0.00  0.00    +0.000 C 
ATOM      9  F2  HFT A   1      26.277   6.034   2.801  0.00  0.00    +0.000 F 
ATOM     10  F3  HFT A   1      27.707   5.864   4.428  0.00  0.00    +0.000 F 
ENDBRANCH   1   8
BRANCH   3  11
ATOM     11  N1  HFT A   1      24.514   5.044   4.876  0.00  0.00    +0.000 N 
ATOM     12  O2  HFT A   1      23.155   5.082   4.464  0.00  0.00    +0.000 OA
ATOM     13  O1  HFT A   1      25.017   6.176   5.570  0.00  0.00    +0.000 OA
ENDBRANCH   3  11
BRANCH   6  14
ATOM     14  N9  HFT A   1      26.928   0.297   3.694  0.00  0.00    +0.000 NA
ATOM     15  C10 HFT A   1      27.946  -0.318   4.293  0.00  0.00    +0.000 C 
ATOM     16  O10 HFT A   1      28.591   0.142   5.235  0.00  0.00    +0.000 OA
BRANCH  15  17
ATOM     17  C11 HFT A   1      28.290  -1.688   3.704  0.00  0.00    +0.000 C 
ATOM     18  C12 HFT A   1      29.798  -1.916   3.816  0.00  0.00    +0.000 C 
ATOM     19  C13 HFT A   1      27.535  -2.769   4.482  0.00  0.00    +0.000 C 
ATOM     20  O11 HFT A   1      27.898  -1.710   2.329  0.00  0.00    +0.000 OA
ENDBRANCH  15  17
ENDBRANCH   6  14
TORSDOF 4
ENDMDL
MODEL 6
REMARK VINA RESULT:      -6.8      2.803      6.409
REMARK  Name = ligand_pdbs\HFT.pdb
REMARK  4 active torsions:
REMARK  status: ('A' for Active; 'I' for Inactive)
REMARK    1  A    between atoms: C7_2  and  C3_5
REMARK    2  A    between atoms: C4_7  and  N1_8
REMARK    3  A    between atoms: C1_13  and  N9_14
REMARK    4  A    between atoms: C10_15  and  C11_17
REMARK                            x       y       z     vdW  Elec       q    Type
REMARK                         _______ _______ _______ _____ _____    ______ ____
ROOT
ATOM      1  C3  HFT A   1      27.122   0.981   5.079  0.00  0.00    +0.000 A 
ATOM      2  C2  HFT A   1      26.372   2.143   4.879  0.00  0.00    +0.000 A 
ATOM      3  C4  HFT A   1      28.318   1.088   5.794  0.00  0.00    +0.000 A 
ATOM      4  C5  HFT A   1      28.714   2.324   6.299  0.00  0.00    +0.000 A 
ATOM      5  C6  HFT A   1      27.951   3.467   6.094  0.00  0.00    +0.000 A 
ATOM      6  C1  HFT A   1      26.767   3.384   5.372  0.00  0.00    +0.000 A 
ENDROOT
BRANCH   1   8
ATOM      7  F1  HFT A   1      25.342  -0.232   4.067  0.00  0.00    +0.000 F 
ATOM      8  C7  HFT A   1      26.572  -0.360   4.556  0.00  0.00    +0.000 C 
ATOM      9  F2  HFT A   1      27.329  -0.822   3.565  0.00  0.00    +0.000 F 
ATOM     10  F3  HFT A   1      26.482  -1.278   5.513  0.00  0.00    +0.000 F 
ENDBRANCH   1   8
BRANCH   3  11
ATOM     11  N1  HFT A   1      29.199   0.096   5.922  0.00  0.00    +0.000 N 
ATOM     12  O2  HFT A   1      29.531  -0.377   7.219  0.00  0.00    +0.000 OA
ATOM     13  O1  HFT A   1      29.798  -0.560   4.815  0.00  0.00    +0.000 OA
ENDBRANCH   3  11
BRANCH   6  14
ATOM     14  N9  HFT A   1      26.087   4.513   5.166  0.00  0.00    +0.000 NA
ATOM     15  C10 HFT A   1      26.396   5.484   4.310  0.00  0.00    +0.000 C 
ATOM     16  O10 HFT A   1      27.381   5.485   3.572  0.00  0.00    +0.000 OA
BRANCH  15  17
ATOM     17  C11 HFT A   1      25.415   6.659   4.308  0.00  0.00    +0.000 C 
ATOM     18  C12 HFT A   1      24.015   6.140   4.641  0.00  0.00    +0.000 C 
ATOM     19  C13 HFT A   1      25.859   7.682   5.355  0.00  0.00    +0.000 C 
ATOM     20  O11 HFT A   1      25.413   7.256   3.009  0.00  0.00    +0.000 OA
ENDBRANCH  15  17
ENDBRANCH   6  14
TORSDOF 4
ENDMDL
MODEL 7
REMARK VINA RESULT:      -6.8      1.220      1.704
REMARK  Name = ligand_pdbs\HFT.pdb
REMARK  4 active torsions:
REMARK  status: ('A' for Active; 'I' for Inactive)
REMARK    1  A    between atoms: C7_2  and  C3_5
REMARK    2  A    between atoms: C4_7  and  N1_8
REMARK    3  A    between atoms: C1_13  and  N9_14
REMARK    4  A    between atoms: C10_15  and  C11_17
REMARK                            x       y       z     vdW  Elec       q    Type
REMARK                         _______ _______ _______ _____ _____    ______ ____
ROOT
ATOM      1  C3  HFT A   1      25.454   4.296   4.602  0.00  0.00    +0.000 A 
ATOM      2  C2  HFT A   1      26.046   3.046   4.804  0.00  0.00    +0.000 A 
ATOM      3  C4  HFT A   1      26.293   5.381   4.332  0.00  0.00    +0.000 A 
ATOM      4  C5  HFT A   1      27.670   5.189   4.249  0.00  0.00    +0.000 A 
ATOM      5  C6  HFT A   1      28.238   3.936   4.448  0.00  0.00    +0.000 A 
ATOM      6  C1  HFT A   1      27.422   2.848   4.734  0.00  0.00    +0.000 A 
ENDROOT
BRANCH   1   8
ATOM      7  F1  HFT A   1      23.476   5.363   3.820  0.00  0.00    +0.000 F 
ATOM      8  C7  HFT A   1      23.918   4.407   4.631  0.00  0.00    +0.000 C 
ATOM      9  F2  HFT A   1      23.359   3.271   4.222  0.00  0.00    +0.000 F 
ATOM     10  F3  HFT A   1      23.456   4.720   5.839  0.00  0.00    +0.000 F 
ENDBRANCH   1   8
BRANCH   3  11
ATOM     11  N1  HFT A   1      25.876   6.646   4.274  0.00  0.00    +0.000 N 
ATOM     12  O2  HFT A   1      25.931   7.452   5.442  0.00  0.00    +0.000 OA
ATOM     13  O1  HFT A   1      25.420   7.260   3.078  0.00  0.00    +0.000 OA
ENDBRANCH   3  11
BRANCH   6  14
ATOM     14  N9  HFT A   1      28.013   1.672   4.955  0.00  0.00    +0.000 NA
ATOM     15  C10 HFT A   1      28.072   0.641   4.115  0.00  0.00    +0.000 C 
ATOM     16  O10 HFT A   1      27.573   0.618   2.991  0.00  0.00    +0.000 OA
BRANCH  15  17
ATOM     17  C11 HFT A   1      28.823  -0.575   4.664  0.00  0.00    +0.000 C 
ATOM     18  C12 HFT A   1      29.641  -1.207   3.536  0.00  0.00    +0.000 C 
ATOM     19  C13 HFT A   1      29.748  -0.121   5.795  0.00  0.00    +0.000 C 
ATOM     20  O11 HFT A   1      27.871  -1.520   5.159  0.00  0.00    +0.000 OA
ENDBRANCH  15  17
ENDBRANCH   6  14
TORSDOF 4
ENDMDL
MODEL 8
REMARK VINA RESULT:      -6.6      2.282      2.872
REMARK  Name = ligand_pdbs\HFT.pdb
REMARK  4 active torsions:
REMARK  status: ('A' for Active; 'I' for Inactive)
REMARK    1  A    between atoms: C7_2  and  C3_5
REMARK    2  A    between atoms: C4_7  and  N1_8
REMARK    3  A    between atoms: C1_13  and  N9_14
REMARK    4  A    between atoms: C10_15  and  C11_17
REMARK                            x       y       z     vdW  Elec       q    Type
REMARK                         _______ _______ _______ _____ _____    ______ ____
ROOT
ATOM      1  C3  HFT A   1      26.473   4.207   4.296  0.00  0.00    +0.000 A 
ATOM      2  C2  HFT A   1      27.111   2.966   4.362  0.00  0.00    +0.000 A 
ATOM      3  C4  HFT A   1      25.240   4.344   4.940  0.00  0.00    +0.000 A 
ATOM      4  C5  HFT A   1      24.699   3.267   5.638  0.00  0.00    +0.000 A 
ATOM      5  C6  HFT A   1      25.353   2.041   5.695  0.00  0.00    +0.000 A 
ATOM      6  C1  HFT A   1      26.572   1.881   5.048  0.00  0.00    +0.000 A 
ENDROOT
BRANCH   1   8
ATOM      7  F1  HFT A   1      28.195   4.945   2.829  0.00  0.00    +0.000 F 
ATOM      8  C7  HFT A   1      27.178   5.370   3.573  0.00  0.00    +0.000 C 
ATOM      9  F2  HFT A   1      26.336   5.988   2.749  0.00  0.00    +0.000 F 
ATOM     10  F3  HFT A   1      27.699   6.252   4.421  0.00  0.00    +0.000 F 
ENDBRANCH   1   8
BRANCH   3  11
ATOM     11  N1  HFT A   1      24.457   5.417   4.827  0.00  0.00    +0.000 N 
ATOM     12  O2  HFT A   1      23.167   5.280   4.249  0.00  0.00    +0.000 OA
ATOM     13  O1  HFT A   1      24.826   6.702   5.305  0.00  0.00    +0.000 OA
ENDBRANCH   3  11
BRANCH   6  14
ATOM     14  N9  HFT A   1      27.145   0.677   5.097  0.00  0.00    +0.000 NA
ATOM     15  C10 HFT A   1      27.028  -0.298   4.198  0.00  0.00    +0.000 C 
ATOM     16  O10 HFT A   1      26.354  -0.232   3.171  0.00  0.00    +0.000 OA
BRANCH  15  17
ATOM     17  C11 HFT A   1      27.810  -1.569   4.541  0.00  0.00    +0.000 C 
ATOM     18  C12 HFT A   1      26.893  -2.781   4.367  0.00  0.00    +0.000 C 
ATOM     19  C13 HFT A   1      29.014  -1.681   3.604  0.00  0.00    +0.000 C 
ATOM     20  O11 HFT A   1      28.251  -1.486   5.898  0.00  0.00    +0.000 OA
ENDBRANCH  15  17
ENDBRANCH   6  14
TORSDOF 4
ENDMDL
MODEL 9
REMARK VINA RESULT:      -4.6      2.633      3.370
REMARK  Name = ligand_pdbs\HFT.pdb
REMARK  4 active torsions:
REMARK  status: ('A' for Active; 'I' for Inactive)
REMARK    1  A    between atoms: C7_2  and  C3_5
REMARK    2  A    between atoms: C4_7  and  N1_8
REMARK    3  A    between atoms: C1_13  and  N9_14
REMARK    4  A    between atoms: C10_15  and  C11_17
REMARK                            x       y       z     vdW  Elec       q    Type
REMARK                         _______ _______ _______ _____ _____    ______ ____
ROOT
ATOM      1  C3  HFT A   1      26.450   5.570   5.020  0.00  0.00    +0.000 A 
ATOM      2  C2  HFT A   1      27.574   4.754   5.175  0.00  0.00    +0.000 A 
ATOM      3  C4  HFT A   1      25.205   4.950   4.886  0.00  0.00    +0.000 A 
ATOM      4  C5  HFT A   1      25.113   3.561   4.932  0.00  0.00    +0.000 A 
ATOM      5  C6  HFT A   1      26.243   2.768   5.093  0.00  0.00    +0.000 A 
ATOM      6  C1  HFT A   1      27.492   3.365   5.212  0.00  0.00    +0.000 A 
ENDROOT
BRANCH   1   8
ATOM      7  F1  HFT A   1      27.898   7.444   5.253  0.00  0.00    +0.000 F 
ATOM      8  C7  HFT A   1      26.629   7.100   5.060  0.00  0.00    +0.000 C 
ATOM      9  F2  HFT A   1      26.258   7.645   3.904  0.00  0.00    +0.000 F 
ATOM     10  F3  HFT A   1      25.950   7.662   6.055  0.00  0.00    +0.000 F 
ENDBRANCH   1   8
BRANCH   3  11
ATOM     11  N1  HFT A   1      24.081   5.598   4.578  0.00  0.00    +0.000 N 
ATOM     12  O2  HFT A   1      22.890   4.858   4.349  0.00  0.00    +0.000 OA
ATOM     13  O1  HFT A   1      23.992   7.013   4.514  0.00  0.00    +0.000 OA
ENDBRANCH   3  11
BRANCH   6  14
ATOM     14  N9  HFT A   1      28.553   2.564   5.326  0.00  0.00    +0.000 NA
ATOM     15  C10 HFT A   1      28.633   1.447   6.047  0.00  0.00    +0.000 C 
ATOM     16  O10 HFT A   1      27.723   0.986   6.734  0.00  0.00    +0.000 OA
BRANCH  15  17
ATOM     17  C11 HFT A   1      29.993   0.747   5.975  0.00  0.00    +0.000 C 
ATOM     18  C12 HFT A   1      29.977  -0.255   4.819  0.00  0.00    +0.000 C 
ATOM     19  C13 HFT A   1      31.082   1.797   5.746  0.00  0.00    +0.000 C 
ATOM     20  O11 HFT A   1      30.224   0.062   7.208  0.00  0.00    +0.000 OA
ENDBRANCH  15  17
ENDBRANCH   6  14
TORSDOF 4
ENDMDL
