MODEL 1
REMARK VINA RESULT:      -9.5      0.000      0.000
REMARK  Name = ligand_pdbs\HYQ.pdb
REMARK  2 active torsions:
REMARK  status: ('A' for Active; 'I' for Inactive)
REMARK    1  A    between atoms: N9_4  and  C14_5
REMARK    2  A    between atoms: C20_8  and  N23_9
REMARK                            x       y       z     vdW  Elec       q    Type
REMARK                         _______ _______ _______ _____ _____    ______ ____
ROOT
ATOM      1  C1  HYQ A 101      29.064   0.600   4.307  0.00  0.00    +0.000 C 
ATOM      2  C4  HYQ A 101      28.568   1.887   4.880  0.00  0.00    +0.000 C 
ATOM      3  O10 HYQ A 101      29.026   2.332   5.928  0.00  0.00    +0.000 OA
ATOM      4  N9  HYQ A 101      27.610   2.414   4.086  0.00  0.00    +0.000 N 
ATOM      5  C6  HYQ A 101      27.337   1.646   3.019  0.00  0.00    +0.000 C 
ATOM      6  O13 HYQ A 101      26.476   1.811   2.159  0.00  0.00    +0.000 OA
ATOM      7  C2  HYQ A 101      28.270   0.470   2.973  0.00  0.00    +0.000 C 
ATOM      8  C5  HYQ A 101      27.460  -0.852   2.941  0.00  0.00    +0.000 C 
ATOM      9  C12 HYQ A 101      26.533  -0.914   4.167  0.00  0.00    +0.000 C 
ATOM     10  C8  HYQ A 101      27.311  -0.797   5.470  0.00  0.00    +0.000 C 
ATOM     11  C3  HYQ A 101      28.817  -0.617   5.229  0.00  0.00    +0.000 C 
ATOM     12  C7  HYQ A 101      29.231  -1.871   4.446  0.00  0.00    +0.000 C 
ATOM     13  C11 HYQ A 101      28.440  -2.017   3.146  0.00  0.00    +0.000 C 
ENDROOT
BRANCH   4  14
ATOM     14  C14 HYQ A 101      27.083   3.661   4.249  0.00  0.00    +0.000 A 
ATOM     15  C16 HYQ A 101      28.073   4.746   4.305  0.00  0.00    +0.000 A 
ATOM     16  C19 HYQ A 101      27.620   6.082   4.589  0.00  0.00    +0.000 A 
ATOM     17  C20 HYQ A 101      26.187   6.335   4.745  0.00  0.00    +0.000 A 
ATOM     18  C17 HYQ A 101      25.158   5.315   4.634  0.00  0.00    +0.000 A 
ATOM     19  C21 HYQ A 101      23.725   5.607   4.723  0.00  0.00    +0.000 A 
ATOM     20  C24 HYQ A 101      22.739   4.524   4.568  0.00  0.00    +0.000 A 
ATOM     21  C22 HYQ A 101      23.177   3.138   4.337  0.00  0.00    +0.000 A 
ATOM     22  C18 HYQ A 101      24.619   2.815   4.265  0.00  0.00    +0.000 A 
ATOM     23  C15 HYQ A 101      25.627   3.876   4.382  0.00  0.00    +0.000 A 
BRANCH  17  24
ATOM     24  N23 HYQ A 101      25.849   7.624   4.937  0.00  0.00    +0.000 N 
ATOM     25  O26 HYQ A 101      25.977   8.503   3.926  0.00  0.00    +0.000 OA
ATOM     26  O25 HYQ A 101      25.555   8.152   6.170  0.00  0.00    +0.000 OA
ENDBRANCH  17  24
ENDBRANCH   4  14
TORSDOF 2
ENDMDL
MODEL 2
REMARK VINA RESULT:      -8.7      2.251      7.182
REMARK  Name = ligand_pdbs\HYQ.pdb
REMARK  2 active torsions:
REMARK  status: ('A' for Active; 'I' for Inactive)
REMARK    1  A    between atoms: N9_4  and  C14_5
REMARK    2  A    between atoms: C20_8  and  N23_9
REMARK                            x       y       z     vdW  Elec       q    Type
REMARK                         _______ _______ _______ _____ _____    ______ ____
ROOT
ATOM      1  C1  HYQ A 101      27.106   6.209   4.393  0.00  0.00    +0.000 C 
ATOM      2  C4  HYQ A 101      27.391   4.860   3.817  0.00  0.00    +0.000 C 
ATOM      3  O10 HYQ A 101      28.019   4.739   2.769  0.00  0.00    +0.000 OA
ATOM      4  N9  HYQ A 101      26.873   3.895   4.607  0.00  0.00    +0.000 N 
ATOM      5  C6  HYQ A 101      26.224   4.389   5.674  0.00  0.00    +0.000 C 
ATOM      6  O13 HYQ A 101      25.590   3.780   6.532  0.00  0.00    +0.000 OA
ATOM      7  C2  HYQ A 101      26.367   5.883   5.725  0.00  0.00    +0.000 C 
ATOM      8  C5  HYQ A 101      24.969   6.552   5.756  0.00  0.00    +0.000 C 
ATOM      9  C12 HYQ A 101      24.159   6.103   4.528  0.00  0.00    +0.000 C 
ATOM     10  C8  HYQ A 101      24.878   6.431   3.226  0.00  0.00    +0.000 C 
ATOM     11  C3  HYQ A 101      26.239   7.098   3.471  0.00  0.00    +0.000 C 
ATOM     12  C7  HYQ A 101      25.904   8.374   4.257  0.00  0.00    +0.000 C 
ATOM     13  C11 HYQ A 101      25.158   8.063   5.556  0.00  0.00    +0.000 C 
ENDROOT
BRANCH   4  14
ATOM     14  C14 HYQ A 101      27.108   2.563   4.440  0.00  0.00    +0.000 A 
ATOM     15  C16 HYQ A 101      26.181   1.885   3.523  0.00  0.00    +0.000 A 
ATOM     16  C19 HYQ A 101      26.279   0.457   3.371  0.00  0.00    +0.000 A 
ATOM     17  C20 HYQ A 101      27.337  -0.268   4.076  0.00  0.00    +0.000 A 
ATOM     18  C17 HYQ A 101      28.321   0.358   4.942  0.00  0.00    +0.000 A 
ATOM     19  C21 HYQ A 101      29.414  -0.381   5.581  0.00  0.00    +0.000 A 
ATOM     20  C24 HYQ A 101      30.394   0.328   6.421  0.00  0.00    +0.000 A 
ATOM     21  C22 HYQ A 101      30.282   1.779   6.642  0.00  0.00    +0.000 A 
ATOM     22  C18 HYQ A 101      29.175   2.543   6.026  0.00  0.00    +0.000 A 
ATOM     23  C15 HYQ A 101      28.200   1.872   5.156  0.00  0.00    +0.000 A 
BRANCH  17  24
ATOM     24  N23 HYQ A 101      27.398  -1.589   3.819  0.00  0.00    +0.000 N 
ATOM     25  O26 HYQ A 101      26.831  -2.460   4.674  0.00  0.00    +0.000 OA
ATOM     26  O25 HYQ A 101      28.173  -2.129   2.823  0.00  0.00    +0.000 OA
ENDBRANCH  17  24
ENDBRANCH   4  14
TORSDOF 2
ENDMDL
MODEL 3
REMARK VINA RESULT:      -8.3      0.739      2.168
REMARK  Name = ligand_pdbs\HYQ.pdb
REMARK  2 active torsions:
REMARK  status: ('A' for Active; 'I' for Inactive)
REMARK    1  A    between atoms: N9_4  and  C14_5
REMARK    2  A    between atoms: C20_8  and  N23_9
REMARK                            x       y       z     vdW  Elec       q    Type
REMARK                         _______ _______ _______ _____ _____    ______ ____
ROOT
ATOM      1  C1  HYQ A 101      26.883  -0.229   3.455  0.00  0.00    +0.000 C 
ATOM      2  C4  HYQ A 101      26.656   1.216   3.153  0.00  0.00    +0.000 C 
ATOM      3  O10 HYQ A 101      26.274   1.580   2.044  0.00  0.00    +0.000 OA
ATOM      4  N9  HYQ A 101      26.925   1.969   4.242  0.00  0.00    +0.000 N 
ATOM      5  C6  HYQ A 101      27.345   1.240   5.288  0.00  0.00    +0.000 C 
ATOM      6  O13 HYQ A 101      27.732   1.632   6.386  0.00  0.00    +0.000 OA
ATOM      7  C2  HYQ A 101      27.283  -0.224   4.961  0.00  0.00    +0.000 C 
ATOM      8  C5  HYQ A 101      28.675  -0.875   5.163  0.00  0.00    +0.000 C 
ATOM      9  C12 HYQ A 101      29.713  -0.145   4.293  0.00  0.00    +0.000 C 
ATOM     10  C8  HYQ A 101      29.327  -0.159   2.821  0.00  0.00    +0.000 C 
ATOM     11  C3  HYQ A 101      27.987  -0.871   2.582  0.00  0.00    +0.000 C 
ATOM     12  C7  HYQ A 101      28.212  -2.295   3.111  0.00  0.00    +0.000 C 
ATOM     13  C11 HYQ A 101      28.626  -2.296   4.583  0.00  0.00    +0.000 C 
ENDROOT
BRANCH   4  14
ATOM     14  C14 HYQ A 101      26.655   3.303   4.334  0.00  0.00    +0.000 A 
ATOM     15  C16 HYQ A 101      27.841   4.170   4.358  0.00  0.00    +0.000 A 
ATOM     16  C19 HYQ A 101      27.660   5.583   4.567  0.00  0.00    +0.000 A 
ATOM     17  C20 HYQ A 101      26.305   6.123   4.682  0.00  0.00    +0.000 A 
ATOM     18  C17 HYQ A 101      25.095   5.324   4.600  0.00  0.00    +0.000 A 
ATOM     19  C21 HYQ A 101      23.748   5.898   4.646  0.00  0.00    +0.000 A 
ATOM     20  C24 HYQ A 101      22.567   5.027   4.524  0.00  0.00    +0.000 A 
ATOM     21  C22 HYQ A 101      22.722   3.571   4.369  0.00  0.00    +0.000 A 
ATOM     22  C18 HYQ A 101      24.072   2.964   4.342  0.00  0.00    +0.000 A 
ATOM     23  C15 HYQ A 101      25.270   3.809   4.427  0.00  0.00    +0.000 A 
BRANCH  17  24
ATOM     24  N23 HYQ A 101      26.230   7.462   4.804  0.00  0.00    +0.000 N 
ATOM     25  O26 HYQ A 101      26.137   8.014   6.028  0.00  0.00    +0.000 OA
ATOM     26  O25 HYQ A 101      26.049   8.309   3.739  0.00  0.00    +0.000 OA
ENDBRANCH  17  24
ENDBRANCH   4  14
TORSDOF 2
ENDMDL
MODEL 4
REMARK VINA RESULT:      -8.3      2.342      7.098
REMARK  Name = ligand_pdbs\HYQ.pdb
REMARK  2 active torsions:
REMARK  status: ('A' for Active; 'I' for Inactive)
REMARK    1  A    between atoms: N9_4  and  C14_5
REMARK    2  A    between atoms: C20_8  and  N23_9
REMARK                            x       y       z     vdW  Elec       q    Type
REMARK                         _______ _______ _______ _____ _____    ______ ____
ROOT
ATOM      1  C1  HYQ A 101      24.799   4.709   4.113  0.00  0.00    +0.000 C 
ATOM      2  C4  HYQ A 101      25.189   3.321   4.505  0.00  0.00    +0.000 C 
ATOM      3  O10 HYQ A 101      24.448   2.626   5.195  0.00  0.00    +0.000 OA
ATOM      4  N9  HYQ A 101      26.400   3.013   3.993  0.00  0.00    +0.000 N 
ATOM      5  C6  HYQ A 101      26.944   4.025   3.297  0.00  0.00    +0.000 C 
ATOM      6  O13 HYQ A 101      28.054   4.084   2.776  0.00  0.00    +0.000 OA
ATOM      7  C2  HYQ A 101      25.978   5.172   3.206  0.00  0.00    +0.000 C 
ATOM      8  C5  HYQ A 101      26.628   6.462   3.766  0.00  0.00    +0.000 C 
ATOM      9  C12 HYQ A 101      27.082   6.220   5.216  0.00  0.00    +0.000 C 
ATOM     10  C8  HYQ A 101      25.927   5.777   6.103  0.00  0.00    +0.000 C 
ATOM     11  C3  HYQ A 101      24.611   5.657   5.321  0.00  0.00    +0.000 C 
ATOM     12  C7  HYQ A 101      24.371   7.065   4.757  0.00  0.00    +0.000 C 
ATOM     13  C11 HYQ A 101      25.535   7.535   3.884  0.00  0.00    +0.000 C 
ENDROOT
BRANCH   4  14
ATOM     14  C14 HYQ A 101      26.953   1.768   4.034  0.00  0.00    +0.000 A 
ATOM     15  C16 HYQ A 101      26.331   0.788   3.131  0.00  0.00    +0.000 A 
ATOM     16  C19 HYQ A 101      26.772  -0.581   3.186  0.00  0.00    +0.000 A 
ATOM     17  C20 HYQ A 101      27.868  -0.945   4.085  0.00  0.00    +0.000 A 
ATOM     18  C17 HYQ A 101      28.565  -0.008   4.949  0.00  0.00    +0.000 A 
ATOM     19  C21 HYQ A 101      29.707  -0.384   5.787  0.00  0.00    +0.000 A 
ATOM     20  C24 HYQ A 101      30.383   0.629   6.614  0.00  0.00    +0.000 A 
ATOM     21  C22 HYQ A 101      29.915   2.025   6.622  0.00  0.00    +0.000 A 
ATOM     22  C18 HYQ A 101      28.750   2.425   5.802  0.00  0.00    +0.000 A 
ATOM     23  C15 HYQ A 101      28.074   1.446   4.941  0.00  0.00    +0.000 A 
BRANCH  17  24
ATOM     24  N23 HYQ A 101      28.262  -2.231   4.018  0.00  0.00    +0.000 N 
ATOM     25  O26 HYQ A 101      27.513  -3.187   4.598  0.00  0.00    +0.000 OA
ATOM     26  O25 HYQ A 101      29.493  -2.621   3.552  0.00  0.00    +0.000 OA
ENDBRANCH  17  24
ENDBRANCH   4  14
TORSDOF 2
ENDMDL
MODEL 5
REMARK VINA RESULT:      -6.6      2.226      6.759
REMARK  Name = ligand_pdbs\HYQ.pdb
REMARK  2 active torsions:
REMARK  status: ('A' for Active; 'I' for Inactive)
REMARK    1  A    between atoms: N9_4  and  C14_5
REMARK    2  A    between atoms: C20_8  and  N23_9
REMARK                            x       y       z     vdW  Elec       q    Type
REMARK                         _______ _______ _______ _____ _____    ______ ____
ROOT
ATOM      1  C1  HYQ A 101      24.997   4.671   4.188  0.00  0.00    +0.000 C 
ATOM      2  C4  HYQ A 101      25.746   3.684   5.024  0.00  0.00    +0.000 C 
ATOM      3  O10 HYQ A 101      25.169   2.997   5.862  0.00  0.00    +0.000 OA
ATOM      4  N9  HYQ A 101      27.057   3.697   4.699  0.00  0.00    +0.000 N 
ATOM      5  C6  HYQ A 101      27.349   4.595   3.745  0.00  0.00    +0.000 C 
ATOM      6  O13 HYQ A 101      28.449   4.896   3.289  0.00  0.00    +0.000 OA
ATOM      7  C2  HYQ A 101      26.092   5.247   3.242  0.00  0.00    +0.000 C 
ATOM      8  C5  HYQ A 101      26.194   6.786   3.391  0.00  0.00    +0.000 C 
ATOM      9  C12 HYQ A 101      26.464   7.142   4.863  0.00  0.00    +0.000 C 
ATOM     10  C8  HYQ A 101      25.388   6.587   5.786  0.00  0.00    +0.000 C 
ATOM     11  C3  HYQ A 101      24.324   5.790   5.017  0.00  0.00    +0.000 C 
ATOM     12  C7  HYQ A 101      23.736   6.800   4.021  0.00  0.00    +0.000 C 
ATOM     13  C11 HYQ A 101      24.809   7.386   3.104  0.00  0.00    +0.000 C 
ENDROOT
BRANCH   4  14
ATOM     14  C14 HYQ A 101      27.968   2.796   5.165  0.00  0.00    +0.000 A 
ATOM     15  C16 HYQ A 101      28.729   3.243   6.341  0.00  0.00    +0.000 A 
ATOM     16  C19 HYQ A 101      29.792   2.407   6.835  0.00  0.00    +0.000 A 
ATOM     17  C20 HYQ A 101      30.039   1.112   6.200  0.00  0.00    +0.000 A 
ATOM     18  C17 HYQ A 101      29.277   0.590   5.079  0.00  0.00    +0.000 A 
ATOM     19  C21 HYQ A 101      29.498  -0.741   4.507  0.00  0.00    +0.000 A 
ATOM     20  C24 HYQ A 101      28.664  -1.214   3.390  0.00  0.00    +0.000 A 
ATOM     21  C22 HYQ A 101      27.609  -0.356   2.826  0.00  0.00    +0.000 A 
ATOM     22  C18 HYQ A 101      27.381   1.000   3.372  0.00  0.00    +0.000 A 
ATOM     23  C15 HYQ A 101      28.174   1.489   4.507  0.00  0.00    +0.000 A 
BRANCH  17  24
ATOM     24  N23 HYQ A 101      31.004   0.367   6.773  0.00  0.00    +0.000 N 
ATOM     25  O26 HYQ A 101      30.701  -0.422   7.821  0.00  0.00    +0.000 OA
ATOM     26  O25 HYQ A 101      32.338   0.501   6.476  0.00  0.00    +0.000 OA
ENDBRANCH  17  24
ENDBRANCH   4  14
TORSDOF 2
ENDMDL
