MODEL 1
REMARK VINA RESULT:       3.4      0.000      0.000
REMARK  Name = ligand_pdbs\IHP.pdb
REMARK  12 active torsions:
REMARK  status: ('A' for Active; 'I' for Inactive)
REMARK    1  A    between atoms: C1_1  and  O11_7
REMARK    2  A    between atoms: C2_2  and  O12_12
REMARK    3  A    between atoms: C3_3  and  O13_17
REMARK    4  A    between atoms: C4_4  and  O14_22
REMARK    5  A    between atoms: C5_5  and  O15_27
REMARK    6  A    between atoms: C6_6  and  O16_32
REMARK    7  A    between atoms: O11_7  and  P1_8
REMARK    8  A    between atoms: O12_12  and  P2_13
REMARK    9  A    between atoms: O13_17  and  P3_18
REMARK   10  A    between atoms: O14_22  and  P4_23
REMARK   11  A    between atoms: O15_27  and  P5_28
REMARK   12  A    between atoms: O16_32  and  P6_33
REMARK                            x       y       z     vdW  Elec       q    Type
REMARK                         _______ _______ _______ _____ _____    ______ ____
ROOT
ATOM      1  C1  IHP A3000      25.686   1.143   4.073  0.00  0.00    +0.000 C 
ATOM      2  C2  IHP A3000      26.545   0.086   4.743  0.00  0.00    +0.000 C 
ATOM      3  C3  IHP A3000      27.997   0.534   4.790  0.00  0.00    +0.000 C 
ATOM      4  C4  IHP A3000      28.134   1.788   5.648  0.00  0.00    +0.000 C 
ATOM      5  C5  IHP A3000      27.030   2.859   5.459  0.00  0.00    +0.000 C 
ATOM      6  C6  IHP A3000      25.655   2.419   4.904  0.00  0.00    +0.000 C 
ENDROOT
BRANCH   1   7
ATOM      7  O11 IHP A3000      26.172   1.434   2.771  0.00  0.00    +0.000 OA
BRANCH   7   8
ATOM      8  P1  IHP A3000      25.399   0.832   1.494  0.00  0.00    +0.000 P 
ATOM      9  O21 IHP A3000      24.023   0.508   2.021  0.00  0.00    +0.000 OA
ATOM     10  O31 IHP A3000      26.231  -0.367   1.111  0.00  0.00    +0.000 OA
ATOM     11  O41 IHP A3000      25.411   1.948   0.480  0.00  0.00    +0.000 OA
ENDBRANCH   7   8
ENDBRANCH   1   7
BRANCH   2  12
ATOM     12  O12 IHP A3000      26.418  -1.166   4.072  0.00  0.00    +0.000 OA
BRANCH  12  13
ATOM     13  P2  IHP A3000      26.921  -2.510   4.801  0.00  0.00    +0.000 P 
ATOM     14  O22 IHP A3000      28.245  -2.819   4.147  0.00  0.00    +0.000 OA
ATOM     15  O32 IHP A3000      27.026  -2.126   6.257  0.00  0.00    +0.000 OA
ATOM     16  O42 IHP A3000      25.838  -3.512   4.486  0.00  0.00    +0.000 OA
ENDBRANCH  12  13
ENDBRANCH   2  12
BRANCH   3  17
ATOM     17  O13 IHP A3000      28.529   0.771   3.488  0.00  0.00    +0.000 OA
BRANCH  17  18
ATOM     18  P3  IHP A3000      29.582  -0.273   2.858  0.00  0.00    +0.000 P 
ATOM     19  O23 IHP A3000      28.741  -1.161   1.978  0.00  0.00    +0.000 OA
ATOM     20  O33 IHP A3000      30.569   0.587   2.109  0.00  0.00    +0.000 OA
ATOM     21  O43 IHP A3000      30.155  -0.975   4.063  0.00  0.00    +0.000 OA
ENDBRANCH  17  18
ENDBRANCH   3  17
BRANCH   4  22
ATOM     22  O14 IHP A3000      29.451   2.331   5.465  0.00  0.00    +0.000 OA
BRANCH  22  23
ATOM     23  P4  IHP A3000      30.635   2.058   6.526  0.00  0.00    +0.000 P 
ATOM     24  O24 IHP A3000      31.893   2.369   5.749  0.00  0.00    +0.000 OA
ATOM     25  O34 IHP A3000      30.339   3.012   7.653  0.00  0.00    +0.000 OA
ATOM     26  O44 IHP A3000      30.487   0.611   6.921  0.00  0.00    +0.000 OA
ENDBRANCH  22  23
ENDBRANCH   4  22
BRANCH   5  27
ATOM     27  O15 IHP A3000      27.538   3.992   4.755  0.00  0.00    +0.000 OA
BRANCH  27  28
ATOM     28  P5  IHP A3000      27.583   5.368   5.576  0.00  0.00    +0.000 P 
ATOM     29  O25 IHP A3000      27.952   6.392   4.533  0.00  0.00    +0.000 OA
ATOM     30  O35 IHP A3000      26.191   5.512   6.137  0.00  0.00    +0.000 OA
ATOM     31  O45 IHP A3000      28.644   5.114   6.615  0.00  0.00    +0.000 OA
ENDBRANCH  27  28
ENDBRANCH   5  27
BRANCH   6  32
ATOM     32  O16 IHP A3000      25.038   3.457   4.125  0.00  0.00    +0.000 OA
BRANCH  32  33
ATOM     33  P6  IHP A3000      23.771   4.312   4.649  0.00  0.00    +0.000 P 
ATOM     34  O26 IHP A3000      24.022   5.701   4.117  0.00  0.00    +0.000 OA
ATOM     35  O36 IHP A3000      22.580   3.620   4.031  0.00  0.00    +0.000 OA
ATOM     36  O46 IHP A3000      23.826   4.198   6.150  0.00  0.00    +0.000 OA
ENDBRANCH  32  33
ENDBRANCH   6  32
TORSDOF 12
ENDMDL
MODEL 2
REMARK VINA RESULT:       4.4      1.319      5.506
REMARK  Name = ligand_pdbs\IHP.pdb
REMARK  12 active torsions:
REMARK  status: ('A' for Active; 'I' for Inactive)
REMARK    1  A    between atoms: C1_1  and  O11_7
REMARK    2  A    between atoms: C2_2  and  O12_12
REMARK    3  A    between atoms: C3_3  and  O13_17
REMARK    4  A    between atoms: C4_4  and  O14_22
REMARK    5  A    between atoms: C5_5  and  O15_27
REMARK    6  A    between atoms: C6_6  and  O16_32
REMARK    7  A    between atoms: O11_7  and  P1_8
REMARK    8  A    between atoms: O12_12  and  P2_13
REMARK    9  A    between atoms: O13_17  and  P3_18
REMARK   10  A    between atoms: O14_22  and  P4_23
REMARK   11  A    between atoms: O15_27  and  P5_28
REMARK   12  A    between atoms: O16_32  and  P6_33
REMARK                            x       y       z     vdW  Elec       q    Type
REMARK                         _______ _______ _______ _____ _____    ______ ____
ROOT
ATOM      1  C1  IHP A3000      26.217   3.212   5.099  0.00  0.00    +0.000 C 
ATOM      2  C2  IHP A3000      25.083   2.255   4.780  0.00  0.00    +0.000 C 
ATOM      3  C3  IHP A3000      25.605   1.051   4.012  0.00  0.00    +0.000 C 
ATOM      4  C4  IHP A3000      26.588   0.262   4.872  0.00  0.00    +0.000 C 
ATOM      5  C5  IHP A3000      27.587   1.108   5.701  0.00  0.00    +0.000 C 
ATOM      6  C6  IHP A3000      27.216   2.568   6.050  0.00  0.00    +0.000 C 
ENDROOT
BRANCH   1   7
ATOM      7  O11 IHP A3000      26.882   3.615   3.910  0.00  0.00    +0.000 OA
BRANCH   7   8
ATOM      8  P1  IHP A3000      27.109   5.184   3.634  0.00  0.00    +0.000 P 
ATOM      9  O21 IHP A3000      26.392   5.430   2.329  0.00  0.00    +0.000 OA
ATOM     10  O31 IHP A3000      28.610   5.318   3.568  0.00  0.00    +0.000 OA
ATOM     11  O41 IHP A3000      26.473   5.876   4.812  0.00  0.00    +0.000 OA
ENDBRANCH   7   8
ENDBRANCH   1   7
BRANCH   2  12
ATOM     12  O12 IHP A3000      24.052   2.918   4.051  0.00  0.00    +0.000 OA
BRANCH  12  13
ATOM     13  P2  IHP A3000      23.332   4.207   4.692  0.00  0.00    +0.000 P 
ATOM     14  O22 IHP A3000      23.817   5.364   3.853  0.00  0.00    +0.000 OA
ATOM     15  O32 IHP A3000      21.857   3.917   4.551  0.00  0.00    +0.000 OA
ATOM     16  O42 IHP A3000      23.841   4.230   6.112  0.00  0.00    +0.000 OA
ENDBRANCH  12  13
ENDBRANCH   2  12
BRANCH   3  17
ATOM     17  O13 IHP A3000      26.222   1.425   2.781  0.00  0.00    +0.000 OA
BRANCH  17  18
ATOM     18  P3  IHP A3000      25.640   0.848   1.394  0.00  0.00    +0.000 P 
ATOM     19  O23 IHP A3000      25.650   2.036   0.466  0.00  0.00    +0.000 OA
ATOM     20  O33 IHP A3000      26.599  -0.249   1.006  0.00  0.00    +0.000 OA
ATOM     21  O43 IHP A3000      24.257   0.369   1.756  0.00  0.00    +0.000 OA
ENDBRANCH  17  18
ENDBRANCH   3  17
BRANCH   4  22
ATOM     22  O14 IHP A3000      27.253  -0.704   4.044  0.00  0.00    +0.000 OA
BRANCH  22  23
ATOM     23  P4  IHP A3000      27.305  -2.268   4.441  0.00  0.00    +0.000 P 
ATOM     24  O24 IHP A3000      28.640  -2.730   3.906  0.00  0.00    +0.000 OA
ATOM     25  O34 IHP A3000      27.194  -2.264   5.942  0.00  0.00    +0.000 OA
ATOM     26  O44 IHP A3000      26.112  -2.888   3.760  0.00  0.00    +0.000 OA
ENDBRANCH  22  23
ENDBRANCH   4  22
BRANCH   5  27
ATOM     27  O15 IHP A3000      28.902   1.022   5.151  0.00  0.00    +0.000 OA
BRANCH  27  28
ATOM     28  P5  IHP A3000      30.014   0.349   6.090  0.00  0.00    +0.000 P 
ATOM     29  O25 IHP A3000      30.587  -0.748   5.228  0.00  0.00    +0.000 OA
ATOM     30  O35 IHP A3000      30.969   1.472   6.400  0.00  0.00    +0.000 OA
ATOM     31  O45 IHP A3000      29.218  -0.131   7.276  0.00  0.00    +0.000 OA
ENDBRANCH  27  28
ENDBRANCH   5  27
BRANCH   6  32
ATOM     32  O16 IHP A3000      28.378   3.408   6.131  0.00  0.00    +0.000 OA
BRANCH  32  33
ATOM     33  P6  IHP A3000      28.595   4.496   7.307  0.00  0.00    +0.000 P 
ATOM     34  O26 IHP A3000      27.398   4.307   8.205  0.00  0.00    +0.000 OA
ATOM     35  O36 IHP A3000      29.908   4.100   7.936  0.00  0.00    +0.000 OA
ATOM     36  O46 IHP A3000      28.640   5.824   6.596  0.00  0.00    +0.000 OA
ENDBRANCH  32  33
ENDBRANCH   6  32
TORSDOF 12
ENDMDL
