MODEL 1
REMARK VINA RESULT:      -2.6      0.000      0.000
REMARK  Name = ligand_pdbs\IMD.pdb
REMARK  0 active torsions:
REMARK  status: ('A' for Active; 'I' for Inactive)
REMARK                            x       y       z     vdW  Elec       q    Type
REMARK                         _______ _______ _______ _____ _____    ______ ____
ROOT
ATOM      1  N1  IMD A1004      25.717   4.776   5.621  0.00  0.00    +0.000 NA
ATOM      2  C2  IMD A1004      24.504   4.200   5.460  0.00  0.00    +0.000 C 
ATOM      3  N3  IMD A1004      23.746   5.032   4.744  0.00  0.00    +0.000 NA
ATOM      4  C4  IMD A1004      24.468   6.161   4.437  0.00  0.00    +0.000 C 
ATOM      5  C5  IMD A1004      25.709   5.984   4.946  0.00  0.00    +0.000 C 
ENDROOT
TORSDOF 0
ENDMDL
MODEL 2
REMARK VINA RESULT:      -2.6      0.798      2.228
REMARK  Name = ligand_pdbs\IMD.pdb
REMARK  0 active torsions:
REMARK  status: ('A' for Active; 'I' for Inactive)
REMARK                            x       y       z     vdW  Elec       q    Type
REMARK                         _______ _______ _______ _____ _____    ______ ____
ROOT
ATOM      1  N1  IMD A1004      24.333   6.066   4.443  0.00  0.00    +0.000 NA
ATOM      2  C2  IMD A1004      25.593   5.988   4.928  0.00  0.00    +0.000 C 
ATOM      3  N3  IMD A1004      25.731   4.805   5.526  0.00  0.00    +0.000 NA
ATOM      4  C4  IMD A1004      24.552   4.103   5.435  0.00  0.00    +0.000 C 
ATOM      5  C5  IMD A1004      23.694   4.871   4.723  0.00  0.00    +0.000 C 
ENDROOT
TORSDOF 0
ENDMDL
MODEL 3
REMARK VINA RESULT:      -2.6      0.173      1.626
REMARK  Name = ligand_pdbs\IMD.pdb
REMARK  0 active torsions:
REMARK  status: ('A' for Active; 'I' for Inactive)
REMARK                            x       y       z     vdW  Elec       q    Type
REMARK                         _______ _______ _______ _____ _____    ______ ____
ROOT
ATOM      1  N1  IMD A1004      23.807   5.221   4.678  0.00  0.00    +0.000 NA
ATOM      2  C2  IMD A1004      24.542   4.310   5.357  0.00  0.00    +0.000 C 
ATOM      3  N3  IMD A1004      25.760   4.820   5.541  0.00  0.00    +0.000 NA
ATOM      4  C4  IMD A1004      25.825   6.072   4.976  0.00  0.00    +0.000 C 
ATOM      5  C5  IMD A1004      24.596   6.340   4.476  0.00  0.00    +0.000 C 
ENDROOT
TORSDOF 0
ENDMDL
MODEL 4
REMARK VINA RESULT:      -2.6      0.869      1.651
REMARK  Name = ligand_pdbs\IMD.pdb
REMARK  0 active torsions:
REMARK  status: ('A' for Active; 'I' for Inactive)
REMARK                            x       y       z     vdW  Elec       q    Type
REMARK                         _______ _______ _______ _____ _____    ______ ____
ROOT
ATOM      1  N1  IMD A1004      25.689   5.956   4.926  0.00  0.00    +0.000 NA
ATOM      2  C2  IMD A1004      24.437   6.141   4.448  0.00  0.00    +0.000 C 
ATOM      3  N3  IMD A1004      23.724   5.050   4.732  0.00  0.00    +0.000 NA
ATOM      4  C4  IMD A1004      24.515   4.144   5.398  0.00  0.00    +0.000 C 
ATOM      5  C5  IMD A1004      25.727   4.725   5.557  0.00  0.00    +0.000 C 
ENDROOT
TORSDOF 0
ENDMDL
MODEL 5
REMARK VINA RESULT:      -2.6      1.817      2.950
REMARK  Name = ligand_pdbs\IMD.pdb
REMARK  0 active torsions:
REMARK  status: ('A' for Active; 'I' for Inactive)
REMARK                            x       y       z     vdW  Elec       q    Type
REMARK                         _______ _______ _______ _____ _____    ______ ____
ROOT
ATOM      1  N1  IMD A1004      25.362   6.319   5.068  0.00  0.00    +0.000 NA
ATOM      2  C2  IMD A1004      26.239   7.346   5.141  0.00  0.00    +0.000 C 
ATOM      3  N3  IMD A1004      27.470   6.834   5.173  0.00  0.00    +0.000 NA
ATOM      4  C4  IMD A1004      27.399   5.462   5.123  0.00  0.00    +0.000 C 
ATOM      5  C5  IMD A1004      26.088   5.142   5.014  0.00  0.00    +0.000 C 
ENDROOT
TORSDOF 0
ENDMDL
MODEL 6
REMARK VINA RESULT:      -2.5      2.053      2.390
REMARK  Name = ligand_pdbs\IMD.pdb
REMARK  0 active torsions:
REMARK  status: ('A' for Active; 'I' for Inactive)
REMARK                            x       y       z     vdW  Elec       q    Type
REMARK                         _______ _______ _______ _____ _____    ______ ____
ROOT
ATOM      1  N1  IMD A1004      27.859   5.449   4.168  0.00  0.00    +0.000 NA
ATOM      2  C2  IMD A1004      26.750   5.080   3.485  0.00  0.00    +0.000 C 
ATOM      3  N3  IMD A1004      25.717   5.759   3.984  0.00  0.00    +0.000 NA
ATOM      4  C4  IMD A1004      26.150   6.576   5.001  0.00  0.00    +0.000 C 
ATOM      5  C5  IMD A1004      27.491   6.415   5.088  0.00  0.00    +0.000 C 
ENDROOT
TORSDOF 0
ENDMDL
MODEL 7
REMARK VINA RESULT:      -2.5      7.017      7.755
REMARK  Name = ligand_pdbs\IMD.pdb
REMARK  0 active torsions:
REMARK  status: ('A' for Active; 'I' for Inactive)
REMARK                            x       y       z     vdW  Elec       q    Type
REMARK                         _______ _______ _______ _____ _____    ______ ____
ROOT
ATOM      1  N1  IMD A1004      27.990  -0.635   5.244  0.00  0.00    +0.000 NA
ATOM      2  C2  IMD A1004      28.905  -1.129   4.378  0.00  0.00    +0.000 C 
ATOM      3  N3  IMD A1004      28.438  -2.282   3.899  0.00  0.00    +0.000 NA
ATOM      4  C4  IMD A1004      27.209  -2.547   4.455  0.00  0.00    +0.000 C 
ATOM      5  C5  IMD A1004      26.910  -1.501   5.260  0.00  0.00    +0.000 C 
ENDROOT
TORSDOF 0
ENDMDL
MODEL 8
REMARK VINA RESULT:      -2.4      1.223      2.497
REMARK  Name = ligand_pdbs\IMD.pdb
REMARK  0 active torsions:
REMARK  status: ('A' for Active; 'I' for Inactive)
REMARK                            x       y       z     vdW  Elec       q    Type
REMARK                         _______ _______ _______ _____ _____    ______ ____
ROOT
ATOM      1  N1  IMD A1004      23.220   4.349   4.459  0.00  0.00    +0.000 NA
ATOM      2  C2  IMD A1004      24.065   5.397   4.597  0.00  0.00    +0.000 C 
ATOM      3  N3  IMD A1004      25.303   4.915   4.707  0.00  0.00    +0.000 NA
ATOM      4  C4  IMD A1004      25.270   3.542   4.644  0.00  0.00    +0.000 C 
ATOM      5  C5  IMD A1004      23.978   3.191   4.446  0.00  0.00    +0.000 C 
ENDROOT
TORSDOF 0
ENDMDL
MODEL 9
REMARK VINA RESULT:      -2.4      5.840      6.280
REMARK  Name = ligand_pdbs\IMD.pdb
REMARK  0 active torsions:
REMARK  status: ('A' for Active; 'I' for Inactive)
REMARK                            x       y       z     vdW  Elec       q    Type
REMARK                         _______ _______ _______ _____ _____    ______ ____
ROOT
ATOM      1  N1  IMD A1004      30.532   1.925   6.000  0.00  0.00    +0.000 NA
ATOM      2  C2  IMD A1004      30.363   0.674   6.488  0.00  0.00    +0.000 C 
ATOM      3  N3  IMD A1004      29.054   0.422   6.526  0.00  0.00    +0.000 NA
ATOM      4  C4  IMD A1004      28.361   1.516   6.062  0.00  0.00    +0.000 C 
ATOM      5  C5  IMD A1004      29.283   2.435   5.694  0.00  0.00    +0.000 C 
ENDROOT
TORSDOF 0
ENDMDL
