MODEL 1
REMARK VINA RESULT:      -8.7      0.000      0.000
REMARK  Name = ligand_pdbs\JAD.pdb
REMARK  3 active torsions:
REMARK  status: ('A' for Active; 'I' for Inactive)
REMARK    1  A    between atoms: C2_3  and  C7_4
REMARK    2  A    between atoms: C5_8  and  C9_11
REMARK    3  A    between atoms: C11_12  and  O2_13
REMARK                            x       y       z     vdW  Elec       q    Type
REMARK                         _______ _______ _______ _____ _____    ______ ____
ROOT
ATOM      1  C9  JAD A1001      27.551   1.424   4.970  0.00  0.00    +0.000 C 
ATOM      2  C11 JAD A1001      28.988   1.050   4.860  0.00  0.00    +0.000 C 
ATOM      3  C10 JAD A1001      28.923  -0.457   4.971  0.00  0.00    +0.000 C 
ATOM      4  C14 JAD A1001      29.122  -1.195   3.651  0.00  0.00    +0.000 C 
ATOM      5  O1  JAD A1001      30.318  -1.978   3.663  0.00  0.00    +0.000 OA
ATOM      6  C13 JAD A1001      27.911  -2.090   3.470  0.00  0.00    +0.000 C 
ATOM      7  C12 JAD A1001      27.027  -1.885   4.695  0.00  0.00    +0.000 C 
ATOM      8  N3  JAD A1001      27.548  -0.718   5.425  0.00  0.00    +0.000 N 
ATOM      9  N2  JAD A1001      26.848   0.392   5.154  0.00  0.00    +0.000 NA
ENDROOT
BRANCH   1  15
ATOM     10 CL1  JAD A1001      23.725   5.141   4.513  0.00  0.00    +0.000 Cl
ATOM     11  C3  JAD A1001      25.429   4.609   4.681  0.00  0.00    +0.000 A 
ATOM     12  C2  JAD A1001      26.420   5.578   4.741  0.00  0.00    +0.000 A 
ATOM     13  C4  JAD A1001      25.740   3.248   4.753  0.00  0.00    +0.000 A 
ATOM     14  C8  JAD A1001      24.597   2.259   4.680  0.00  0.00    +0.000 C 
ATOM     15  C5  JAD A1001      27.081   2.858   4.881  0.00  0.00    +0.000 A 
ATOM     16  C6  JAD A1001      28.066   3.848   4.944  0.00  0.00    +0.000 A 
ATOM     17  C1  JAD A1001      27.747   5.196   4.873  0.00  0.00    +0.000 A 
BRANCH  12  18
ATOM     18  C7  JAD A1001      26.129   6.830   4.679  0.00  0.00    +0.000 C 
ATOM     19  N1  JAD A1001      25.906   7.967   4.637  0.00  0.00    +0.000 NA
ENDBRANCH  12  18
ENDBRANCH   1  15
BRANCH   2  20
ATOM     20  O2  JAD A1001      29.693   1.636   5.949  0.00  0.00    +0.000 OA
ATOM     21  C15 JAD A1001      30.528   0.730   6.663  0.00  0.00    +0.000 C 
ENDBRANCH   2  20
TORSDOF 3
ENDMDL
MODEL 2
REMARK VINA RESULT:      -6.9      3.117      6.600
REMARK  Name = ligand_pdbs\JAD.pdb
REMARK  3 active torsions:
REMARK  status: ('A' for Active; 'I' for Inactive)
REMARK    1  A    between atoms: C2_3  and  C7_4
REMARK    2  A    between atoms: C5_8  and  C9_11
REMARK    3  A    between atoms: C11_12  and  O2_13
REMARK                            x       y       z     vdW  Elec       q    Type
REMARK                         _______ _______ _______ _____ _____    ______ ____
ROOT
ATOM      1  C9  JAD A1001      27.242   3.494   4.957  0.00  0.00    +0.000 C 
ATOM      2  C11 JAD A1001      25.775   3.697   5.102  0.00  0.00    +0.000 C 
ATOM      3  C10 JAD A1001      25.698   5.175   5.417  0.00  0.00    +0.000 C 
ATOM      4  C14 JAD A1001      25.222   6.043   4.256  0.00  0.00    +0.000 C 
ATOM      5  O1  JAD A1001      23.967   6.664   4.545  0.00  0.00    +0.000 OA
ATOM      6  C13 JAD A1001      26.291   7.097   4.038  0.00  0.00    +0.000 C 
ATOM      7  C12 JAD A1001      27.369   6.851   5.088  0.00  0.00    +0.000 C 
ATOM      8  N3  JAD A1001      27.091   5.545   5.709  0.00  0.00    +0.000 N 
ATOM      9  N2  JAD A1001      27.853   4.574   5.188  0.00  0.00    +0.000 NA
ENDROOT
BRANCH   1  15
ATOM     10 CL1  JAD A1001      27.464  -0.963   1.999  0.00  0.00    +0.000 Cl
ATOM     11  C3  JAD A1001      28.023   0.111   3.322  0.00  0.00    +0.000 A 
ATOM     12  C2  JAD A1001      29.099  -0.301   4.096  0.00  0.00    +0.000 A 
ATOM     13  C4  JAD A1001      27.385   1.332   3.557  0.00  0.00    +0.000 A 
ATOM     14  C8  JAD A1001      26.220   1.703   2.665  0.00  0.00    +0.000 C 
ATOM     15  C5  JAD A1001      27.840   2.152   4.600  0.00  0.00    +0.000 A 
ATOM     16  C6  JAD A1001      28.928   1.724   5.367  0.00  0.00    +0.000 A 
ATOM     17  C1  JAD A1001      29.554   0.510   5.124  0.00  0.00    +0.000 A 
BRANCH  12  18
ATOM     18  C7  JAD A1001      29.685  -1.424   3.874  0.00  0.00    +0.000 C 
ATOM     19  N1  JAD A1001      30.186  -2.444   3.644  0.00  0.00    +0.000 NA
ENDBRANCH  12  18
ENDBRANCH   1  15
BRANCH   2  20
ATOM     20  O2  JAD A1001      25.311   2.896   6.183  0.00  0.00    +0.000 OA
ATOM     21  C15 JAD A1001      24.980   3.630   7.357  0.00  0.00    +0.000 C 
ENDBRANCH   2  20
TORSDOF 3
ENDMDL
MODEL 3
REMARK VINA RESULT:      -6.9      1.777      2.582
REMARK  Name = ligand_pdbs\JAD.pdb
REMARK  3 active torsions:
REMARK  status: ('A' for Active; 'I' for Inactive)
REMARK    1  A    between atoms: C2_3  and  C7_4
REMARK    2  A    between atoms: C5_8  and  C9_11
REMARK    3  A    between atoms: C11_12  and  O2_13
REMARK                            x       y       z     vdW  Elec       q    Type
REMARK                         _______ _______ _______ _____ _____    ______ ____
ROOT
ATOM      1  C9  JAD A1001      27.997   2.807   4.968  0.00  0.00    +0.000 C 
ATOM      2  C11 JAD A1001      27.440   1.587   4.321  0.00  0.00    +0.000 C 
ATOM      3  C10 JAD A1001      28.526   0.570   4.595  0.00  0.00    +0.000 C 
ATOM      4  C14 JAD A1001      28.185  -0.436   5.689  0.00  0.00    +0.000 C 
ATOM      5  O1  JAD A1001      28.089  -1.765   5.171  0.00  0.00    +0.000 OA
ATOM      6  C13 JAD A1001      29.301  -0.353   6.715  0.00  0.00    +0.000 C 
ATOM      7  C12 JAD A1001      30.294   0.682   6.198  0.00  0.00    +0.000 C 
ATOM      8  N3  JAD A1001      29.657   1.381   5.070  0.00  0.00    +0.000 N 
ATOM      9  N2  JAD A1001      29.140   2.560   5.444  0.00  0.00    +0.000 NA
ENDROOT
BRANCH   1  15
ATOM     10 CL1  JAD A1001      23.491   5.697   4.933  0.00  0.00    +0.000 Cl
ATOM     11  C3  JAD A1001      25.274   5.510   4.989  0.00  0.00    +0.000 A 
ATOM     12  C2  JAD A1001      26.055   6.654   5.071  0.00  0.00    +0.000 A 
ATOM     13  C4  JAD A1001      25.852   4.238   4.954  0.00  0.00    +0.000 A 
ATOM     14  C8  JAD A1001      24.925   3.044   4.865  0.00  0.00    +0.000 C 
ATOM     15  C5  JAD A1001      27.248   4.119   4.996  0.00  0.00    +0.000 A 
ATOM     16  C6  JAD A1001      28.020   5.282   5.083  0.00  0.00    +0.000 A 
ATOM     17  C1  JAD A1001      27.436   6.540   5.118  0.00  0.00    +0.000 A 
BRANCH  12  18
ATOM     18  C7  JAD A1001      25.519   7.823   5.106  0.00  0.00    +0.000 C 
ATOM     19  N1  JAD A1001      25.029   8.871   5.179  0.00  0.00    +0.000 NA
ENDBRANCH  12  18
ENDBRANCH   1  15
BRANCH   2  20
ATOM     20  O2  JAD A1001      27.287   1.843   2.929  0.00  0.00    +0.000 OA
ATOM     21  C15 JAD A1001      26.179   1.180   2.329  0.00  0.00    +0.000 C 
ENDBRANCH   2  20
TORSDOF 3
ENDMDL
MODEL 4
REMARK VINA RESULT:      -6.7      3.206      6.656
REMARK  Name = ligand_pdbs\JAD.pdb
REMARK  3 active torsions:
REMARK  status: ('A' for Active; 'I' for Inactive)
REMARK    1  A    between atoms: C2_3  and  C7_4
REMARK    2  A    between atoms: C5_8  and  C9_11
REMARK    3  A    between atoms: C11_12  and  O2_13
REMARK                            x       y       z     vdW  Elec       q    Type
REMARK                         _______ _______ _______ _____ _____    ______ ____
ROOT
ATOM      1  C9  JAD A1001      26.997   2.972   4.702  0.00  0.00    +0.000 C 
ATOM      2  C11 JAD A1001      25.934   3.531   3.822  0.00  0.00    +0.000 C 
ATOM      3  C10 JAD A1001      25.679   4.877   4.463  0.00  0.00    +0.000 C 
ATOM      4  C14 JAD A1001      26.266   6.060   3.700  0.00  0.00    +0.000 C 
ATOM      5  O1  JAD A1001      25.242   6.924   3.201  0.00  0.00    +0.000 OA
ATOM      6  C13 JAD A1001      27.153   6.808   4.678  0.00  0.00    +0.000 C 
ATOM      7  C12 JAD A1001      27.057   6.070   6.008  0.00  0.00    +0.000 C 
ATOM      8  N3  JAD A1001      26.376   4.789   5.756  0.00  0.00    +0.000 N 
ATOM      9  N2  JAD A1001      27.246   3.777   5.643  0.00  0.00    +0.000 NA
ENDROOT
BRANCH   1  15
ATOM     10 CL1  JAD A1001      26.969  -2.379   4.856  0.00  0.00    +0.000 Cl
ATOM     11  C3  JAD A1001      27.710  -0.791   4.473  0.00  0.00    +0.000 A 
ATOM     12  C2  JAD A1001      28.968  -0.775   3.888  0.00  0.00    +0.000 A 
ATOM     13  C4  JAD A1001      27.025   0.394   4.756  0.00  0.00    +0.000 A 
ATOM     14  C8  JAD A1001      25.657   0.283   5.394  0.00  0.00    +0.000 C 
ATOM     15  C5  JAD A1001      27.628   1.623   4.449  0.00  0.00    +0.000 A 
ATOM     16  C6  JAD A1001      28.895   1.621   3.857  0.00  0.00    +0.000 A 
ATOM     17  C1  JAD A1001      29.564   0.438   3.579  0.00  0.00    +0.000 A 
BRANCH  12  18
ATOM     18  C7  JAD A1001      29.593  -1.868   3.626  0.00  0.00    +0.000 C 
ATOM     19  N1  JAD A1001      30.154  -2.863   3.429  0.00  0.00    +0.000 NA
ENDBRANCH  12  18
ENDBRANCH   1  15
BRANCH   2  20
ATOM     20  O2  JAD A1001      24.795   2.681   3.893  0.00  0.00    +0.000 OA
ATOM     21  C15 JAD A1001      23.608   3.327   4.340  0.00  0.00    +0.000 C 
ENDBRANCH   2  20
TORSDOF 3
ENDMDL
MODEL 5
REMARK VINA RESULT:      -6.7      3.280      6.870
REMARK  Name = ligand_pdbs\JAD.pdb
REMARK  3 active torsions:
REMARK  status: ('A' for Active; 'I' for Inactive)
REMARK    1  A    between atoms: C2_3  and  C7_4
REMARK    2  A    between atoms: C5_8  and  C9_11
REMARK    3  A    between atoms: C11_12  and  O2_13
REMARK                            x       y       z     vdW  Elec       q    Type
REMARK                         _______ _______ _______ _____ _____    ______ ____
ROOT
ATOM      1  C9  JAD A1001      27.091   3.753   4.907  0.00  0.00    +0.000 C 
ATOM      2  C11 JAD A1001      25.688   3.967   4.457  0.00  0.00    +0.000 C 
ATOM      3  C10 JAD A1001      25.443   5.398   4.883  0.00  0.00    +0.000 C 
ATOM      4  C14 JAD A1001      25.459   6.407   3.739  0.00  0.00    +0.000 C 
ATOM      5  O1  JAD A1001      24.178   7.014   3.556  0.00  0.00    +0.000 OA
ATOM      6  C13 JAD A1001      26.491   7.458   4.105  0.00  0.00    +0.000 C 
ATOM      7  C12 JAD A1001      27.049   7.067   5.469  0.00  0.00    +0.000 C 
ATOM      8  N3  JAD A1001      26.581   5.703   5.764  0.00  0.00    +0.000 N 
ATOM      9  N2  JAD A1001      27.519   4.786   5.493  0.00  0.00    +0.000 NA
ENDROOT
BRANCH   1  15
ATOM     10 CL1  JAD A1001      30.721   0.050   6.238  0.00  0.00    +0.000 Cl
ATOM     11  C3  JAD A1001      29.432   0.726   5.190  0.00  0.00    +0.000 A 
ATOM     12  C2  JAD A1001      29.053   0.008   4.065  0.00  0.00    +0.000 A 
ATOM     13  C4  JAD A1001      28.827   1.944   5.511  0.00  0.00    +0.000 A 
ATOM     14  C8  JAD A1001      29.302   2.660   6.758  0.00  0.00    +0.000 C 
ATOM     15  C5  JAD A1001      27.824   2.452   4.674  0.00  0.00    +0.000 A 
ATOM     16  C6  JAD A1001      27.452   1.714   3.546  0.00  0.00    +0.000 A 
ATOM     17  C1  JAD A1001      28.057   0.505   3.238  0.00  0.00    +0.000 A 
BRANCH  12  18
ATOM     18  C7  JAD A1001      29.610  -1.116   3.775  0.00  0.00    +0.000 C 
ATOM     19  N1  JAD A1001      30.080  -2.147   3.533  0.00  0.00    +0.000 NA
ENDBRANCH  12  18
ENDBRANCH   1  15
BRANCH   2  20
ATOM     20  O2  JAD A1001      24.846   3.053   5.150  0.00  0.00    +0.000 OA
ATOM     21  C15 JAD A1001      23.931   2.350   4.316  0.00  0.00    +0.000 C 
ENDBRANCH   2  20
TORSDOF 3
ENDMDL
MODEL 6
REMARK VINA RESULT:      -6.3      2.261      3.268
REMARK  Name = ligand_pdbs\JAD.pdb
REMARK  3 active torsions:
REMARK  status: ('A' for Active; 'I' for Inactive)
REMARK    1  A    between atoms: C2_3  and  C7_4
REMARK    2  A    between atoms: C5_8  and  C9_11
REMARK    3  A    between atoms: C11_12  and  O2_13
REMARK                            x       y       z     vdW  Elec       q    Type
REMARK                         _______ _______ _______ _____ _____    ______ ____
ROOT
ATOM      1  C9  JAD A1001      26.652   2.006   3.967  0.00  0.00    +0.000 C 
ATOM      2  C11 JAD A1001      25.800   0.843   4.339  0.00  0.00    +0.000 C 
ATOM      3  C10 JAD A1001      26.623  -0.318   3.824  0.00  0.00    +0.000 C 
ATOM      4  C14 JAD A1001      27.346  -1.108   4.910  0.00  0.00    +0.000 C 
ATOM      5  O1  JAD A1001      26.855  -2.447   5.000  0.00  0.00    +0.000 OA
ATOM      6  C13 JAD A1001      28.816  -1.113   4.535  0.00  0.00    +0.000 C 
ATOM      7  C12 JAD A1001      28.935  -0.347   3.222  0.00  0.00    +0.000 C 
ATOM      8  N3  JAD A1001      27.645   0.321   2.981  0.00  0.00    +0.000 N 
ATOM      9  N2  JAD A1001      27.677   1.610   3.345  0.00  0.00    +0.000 NA
ENDROOT
BRANCH   1  15
ATOM     10 CL1  JAD A1001      27.831   7.003   5.485  0.00  0.00    +0.000 Cl
ATOM     11  C3  JAD A1001      26.698   5.707   4.981  0.00  0.00    +0.000 A 
ATOM     12  C2  JAD A1001      25.349   6.013   4.880  0.00  0.00    +0.000 A 
ATOM     13  C4  JAD A1001      27.175   4.425   4.694  0.00  0.00    +0.000 A 
ATOM     14  C8  JAD A1001      28.662   4.178   4.830  0.00  0.00    +0.000 C 
ATOM     15  C5  JAD A1001      26.268   3.428   4.305  0.00  0.00    +0.000 A 
ATOM     16  C6  JAD A1001      24.912   3.755   4.206  0.00  0.00    +0.000 A 
ATOM     17  C1  JAD A1001      24.450   5.031   4.490  0.00  0.00    +0.000 A 
BRANCH  12  18
ATOM     18  C7  JAD A1001      24.915   7.196   5.141  0.00  0.00    +0.000 C 
ATOM     19  N1  JAD A1001      24.556   8.267   5.402  0.00  0.00    +0.000 NA
ENDBRANCH  12  18
ENDBRANCH   1  15
BRANCH   2  20
ATOM     20  O2  JAD A1001      24.555   0.958   3.660  0.00  0.00    +0.000 OA
ATOM     21  C15 JAD A1001      24.642   0.813   2.246  0.00  0.00    +0.000 C 
ENDBRANCH   2  20
TORSDOF 3
ENDMDL
MODEL 7
REMARK VINA RESULT:      -6.2      2.072      2.688
REMARK  Name = ligand_pdbs\JAD.pdb
REMARK  3 active torsions:
REMARK  status: ('A' for Active; 'I' for Inactive)
REMARK    1  A    between atoms: C2_3  and  C7_4
REMARK    2  A    between atoms: C5_8  and  C9_11
REMARK    3  A    between atoms: C11_12  and  O2_13
REMARK                            x       y       z     vdW  Elec       q    Type
REMARK                         _______ _______ _______ _____ _____    ______ ____
ROOT
ATOM      1  C9  JAD A1001      27.079   1.569   3.590  0.00  0.00    +0.000 C 
ATOM      2  C11 JAD A1001      26.083   0.472   3.740  0.00  0.00    +0.000 C 
ATOM      3  C10 JAD A1001      26.919  -0.748   3.423  0.00  0.00    +0.000 C 
ATOM      4  C14 JAD A1001      27.307  -1.580   4.642  0.00  0.00    +0.000 C 
ATOM      5  O1  JAD A1001      26.714  -2.880   4.601  0.00  0.00    +0.000 OA
ATOM      6  C13 JAD A1001      28.820  -1.693   4.624  0.00  0.00    +0.000 C 
ATOM      7  C12 JAD A1001      29.299  -0.948   3.383  0.00  0.00    +0.000 C 
ATOM      8  N3  JAD A1001      28.154  -0.191   2.851  0.00  0.00    +0.000 N 
ATOM      9  N2  JAD A1001      28.191   1.095   3.224  0.00  0.00    +0.000 NA
ENDROOT
BRANCH   1  15
ATOM     10 CL1  JAD A1001      23.701   5.439   5.099  0.00  0.00    +0.000 Cl
ATOM     11  C3  JAD A1001      25.282   4.833   4.505  0.00  0.00    +0.000 A 
ATOM     12  C2  JAD A1001      26.288   5.754   4.252  0.00  0.00    +0.000 A 
ATOM     13  C4  JAD A1001      25.485   3.465   4.309  0.00  0.00    +0.000 A 
ATOM     14  C8  JAD A1001      24.333   2.530   4.610  0.00  0.00    +0.000 C 
ATOM     15  C5  JAD A1001      26.729   3.017   3.841  0.00  0.00    +0.000 A 
ATOM     16  C6  JAD A1001      27.733   3.959   3.595  0.00  0.00    +0.000 A 
ATOM     17  C1  JAD A1001      27.521   5.315   3.795  0.00  0.00    +0.000 A 
BRANCH  12  18
ATOM     18  C7  JAD A1001      26.098   7.014   4.437  0.00  0.00    +0.000 C 
ATOM     19  N1  JAD A1001      25.887   8.140   4.614  0.00  0.00    +0.000 NA
ENDBRANCH  12  18
ENDBRANCH   1  15
BRANCH   2  20
ATOM     20  O2  JAD A1001      25.045   0.670   2.787  0.00  0.00    +0.000 OA
ATOM     21  C15 JAD A1001      25.503   0.984   1.476  0.00  0.00    +0.000 C 
ENDBRANCH   2  20
TORSDOF 3
ENDMDL
MODEL 8
REMARK VINA RESULT:      -5.9      3.016      6.595
REMARK  Name = ligand_pdbs\JAD.pdb
REMARK  3 active torsions:
REMARK  status: ('A' for Active; 'I' for Inactive)
REMARK    1  A    between atoms: C2_3  and  C7_4
REMARK    2  A    between atoms: C5_8  and  C9_11
REMARK    3  A    between atoms: C11_12  and  O2_13
REMARK                            x       y       z     vdW  Elec       q    Type
REMARK                         _______ _______ _______ _____ _____    ______ ____
ROOT
ATOM      1  C9  JAD A1001      27.131   3.311   4.197  0.00  0.00    +0.000 C 
ATOM      2  C11 JAD A1001      27.470   4.182   5.356  0.00  0.00    +0.000 C 
ATOM      3  C10 JAD A1001      27.268   5.563   4.774  0.00  0.00    +0.000 C 
ATOM      4  C14 JAD A1001      25.992   6.260   5.234  0.00  0.00    +0.000 C 
ATOM      5  O1  JAD A1001      26.280   7.428   6.007  0.00  0.00    +0.000 OA
ATOM      6  C13 JAD A1001      25.228   6.638   3.978  0.00  0.00    +0.000 C 
ATOM      7  C12 JAD A1001      26.076   6.180   2.797  0.00  0.00    +0.000 C 
ATOM      8  N3  JAD A1001      27.147   5.322   3.327  0.00  0.00    +0.000 N 
ATOM      9  N2  JAD A1001      26.858   4.021   3.189  0.00  0.00    +0.000 NA
ENDROOT
BRANCH   1  15
ATOM     10 CL1  JAD A1001      29.621  -1.423   3.970  0.00  0.00    +0.000 Cl
ATOM     11  C3  JAD A1001      28.182  -0.379   4.210  0.00  0.00    +0.000 A 
ATOM     12  C2  JAD A1001      26.970  -0.985   4.511  0.00  0.00    +0.000 A 
ATOM     13  C4  JAD A1001      28.291   1.009   4.098  0.00  0.00    +0.000 A 
ATOM     14  C8  JAD A1001      29.650   1.586   3.768  0.00  0.00    +0.000 C 
ATOM     15  C5  JAD A1001      27.150   1.803   4.287  0.00  0.00    +0.000 A 
ATOM     16  C6  JAD A1001      25.938   1.176   4.593  0.00  0.00    +0.000 A 
ATOM     17  C1  JAD A1001      25.842  -0.203   4.704  0.00  0.00    +0.000 A 
BRANCH  12  18
ATOM     18  C7  JAD A1001      26.875  -2.264   4.616  0.00  0.00    +0.000 C 
ATOM     19  N1  JAD A1001      26.776  -3.411   4.750  0.00  0.00    +0.000 NA
ENDBRANCH  12  18
ENDBRANCH   1  15
BRANCH   2  20
ATOM     20  O2  JAD A1001      28.827   3.948   5.716  0.00  0.00    +0.000 OA
ATOM     21  C15 JAD A1001      29.001   3.363   7.003  0.00  0.00    +0.000 C 
ENDBRANCH   2  20
TORSDOF 3
ENDMDL
MODEL 9
REMARK VINA RESULT:      -5.7      3.067      6.497
REMARK  Name = ligand_pdbs\JAD.pdb
REMARK  3 active torsions:
REMARK  status: ('A' for Active; 'I' for Inactive)
REMARK    1  A    between atoms: C2_3  and  C7_4
REMARK    2  A    between atoms: C5_8  and  C9_11
REMARK    3  A    between atoms: C11_12  and  O2_13
REMARK                            x       y       z     vdW  Elec       q    Type
REMARK                         _______ _______ _______ _____ _____    ______ ____
ROOT
ATOM      1  C9  JAD A1001      27.307   3.076   4.435  0.00  0.00    +0.000 C 
ATOM      2  C11 JAD A1001      26.239   3.395   5.423  0.00  0.00    +0.000 C 
ATOM      3  C10 JAD A1001      26.068   4.884   5.222  0.00  0.00    +0.000 C 
ATOM      4  C14 JAD A1001      24.810   5.276   4.453  0.00  0.00    +0.000 C 
ATOM      5  O1  JAD A1001      23.907   6.024   5.269  0.00  0.00    +0.000 OA
ATOM      6  C13 JAD A1001      25.269   6.115   3.274  0.00  0.00    +0.000 C 
ATOM      7  C12 JAD A1001      26.785   6.225   3.379  0.00  0.00    +0.000 C 
ATOM      8  N3  JAD A1001      27.229   5.265   4.402  0.00  0.00    +0.000 N 
ATOM      9  N2  JAD A1001      27.688   4.131   3.855  0.00  0.00    +0.000 NA
ENDROOT
BRANCH   1  15
ATOM     10 CL1  JAD A1001      26.577  -2.178   3.713  0.00  0.00    +0.000 Cl
ATOM     11  C3  JAD A1001      27.594  -0.712   3.893  0.00  0.00    +0.000 A 
ATOM     12  C2  JAD A1001      28.973  -0.854   3.832  0.00  0.00    +0.000 A 
ATOM     13  C4  JAD A1001      27.001   0.539   4.084  0.00  0.00    +0.000 A 
ATOM     14  C8  JAD A1001      25.490   0.603   4.138  0.00  0.00    +0.000 C 
ATOM     15  C5  JAD A1001      27.819   1.670   4.225  0.00  0.00    +0.000 A 
ATOM     16  C6  JAD A1001      29.206   1.509   4.158  0.00  0.00    +0.000 A 
ATOM     17  C1  JAD A1001      29.784   0.263   3.966  0.00  0.00    +0.000 A 
BRANCH  12  18
ATOM     18  C7  JAD A1001      29.514  -2.007   3.652  0.00  0.00    +0.000 C 
ATOM     19  N1  JAD A1001      30.014  -3.046   3.530  0.00  0.00    +0.000 NA
ENDBRANCH  12  18
ENDBRANCH   1  15
BRANCH   2  20
ATOM     20  O2  JAD A1001      26.720   3.083   6.725  0.00  0.00    +0.000 OA
ATOM     21  C15 JAD A1001      25.841   3.459   7.781  0.00  0.00    +0.000 C 
ENDBRANCH   2  20
TORSDOF 3
ENDMDL
