MODEL 1
REMARK VINA RESULT:      -8.7      0.000      0.000
REMARK  Name = ligand_pdbs\K10.pdb
REMARK  3 active torsions:
REMARK  status: ('A' for Active; 'I' for Inactive)
REMARK    1  A    between atoms: C5_8  and  C10_15
REMARK    2  A    between atoms: N5_10  and  C6_11
REMARK    3  A    between atoms: C10_15  and  C11_16
REMARK                            x       y       z     vdW  Elec       q    Type
REMARK                         _______ _______ _______ _____ _____    ______ ____
ROOT
ATOM      1  N1  K10 L 936      28.729   4.061   5.371  0.00  0.00    +0.000 NA
ATOM      2  C1  K10 L 936      29.003   2.769   5.526  0.00  0.00    +0.000 C 
ATOM      3  N2  K10 L 936      29.785   2.359   6.530  0.00  0.00    +0.000 NA
ATOM      4  C2  K10 L 936      30.062   1.074   6.707  0.00  0.00    +0.000 C 
ATOM      5  N3  K10 L 936      29.576   0.152   5.908  0.00  0.00    +0.000 NA
ATOM      6  C3  K10 L 936      28.778   0.493   4.871  0.00  0.00    +0.000 C 
ATOM      7  C4  K10 L 936      28.478   1.831   4.663  0.00  0.00    +0.000 C 
ATOM      8  C5  K10 L 936      27.663   1.836   3.532  0.00  0.00    +0.000 C 
ATOM      9  N4  K10 L 936      27.525   0.574   3.155  0.00  0.00    +0.000 NA
ATOM     10  N5  K10 L 936      28.158  -0.180   3.917  0.00  0.00    +0.000 N 
ENDROOT
BRANCH  10  11
ATOM     11  C6  K10 L 936      28.203  -1.663   3.744  0.00  0.00    +0.000 C 
ATOM     12  C7  K10 L 936      27.444  -2.328   4.902  0.00  0.00    +0.000 C 
ATOM     13  C8  K10 L 936      27.542  -2.040   2.416  0.00  0.00    +0.000 C 
ATOM     14  C9  K10 L 936      29.666  -2.136   3.729  0.00  0.00    +0.000 C 
ENDBRANCH  10  11
BRANCH   8  15
ATOM     15  C10 K10 L 936      27.085   3.067   2.832  0.00  0.00    +0.000 C 
BRANCH  15  16
ATOM     16  C11 K10 L 936      25.883   3.626   3.590  0.00  0.00    +0.000 A 
ATOM     17  C12 K10 L 936      25.951   4.966   3.974  0.00  0.00    +0.000 A 
ATOM     18  C13 K10 L 936      24.908   5.569   4.661  0.00  0.00    +0.000 A 
ATOM     19  C14 K10 L 936      23.778   4.833   4.983  0.00  0.00    +0.000 A 
ATOM     20  C15 K10 L 936      23.705   3.493   4.609  0.00  0.00    +0.000 A 
ATOM     21  C16 K10 L 936      24.750   2.900   3.919  0.00  0.00    +0.000 A 
ATOM     22  C17 K10 L 936      24.615   1.428   3.532  0.00  0.00    +0.000 C 
ATOM     23  C18 K10 L 936      25.004   7.038   5.080  0.00  0.00    +0.000 C 
ENDBRANCH  15  16
ENDBRANCH   8  15
TORSDOF 3
ENDMDL
MODEL 2
REMARK VINA RESULT:      -8.0      1.640      3.632
REMARK  Name = ligand_pdbs\K10.pdb
REMARK  3 active torsions:
REMARK  status: ('A' for Active; 'I' for Inactive)
REMARK    1  A    between atoms: C5_8  and  C10_15
REMARK    2  A    between atoms: N5_10  and  C6_11
REMARK    3  A    between atoms: C10_15  and  C11_16
REMARK                            x       y       z     vdW  Elec       q    Type
REMARK                         _______ _______ _______ _____ _____    ______ ____
ROOT
ATOM      1  N1  K10 L 936      24.617   1.066   3.161  0.00  0.00    +0.000 NA
ATOM      2  C1  K10 L 936      25.883   0.726   3.384  0.00  0.00    +0.000 C 
ATOM      3  N2  K10 L 936      26.488  -0.179   2.607  0.00  0.00    +0.000 NA
ATOM      4  C2  K10 L 936      27.752  -0.525   2.808  0.00  0.00    +0.000 C 
ATOM      5  N3  K10 L 936      28.464   0.011   3.774  0.00  0.00    +0.000 NA
ATOM      6  C3  K10 L 936      27.918   0.933   4.599  0.00  0.00    +0.000 C 
ATOM      7  C4  K10 L 936      26.596   1.306   4.412  0.00  0.00    +0.000 C 
ATOM      8  C5  K10 L 936      26.350   2.243   5.414  0.00  0.00    +0.000 C 
ATOM      9  N4  K10 L 936      27.476   2.371   6.100  0.00  0.00    +0.000 NA
ATOM     10  N5  K10 L 936      28.358   1.628   5.633  0.00  0.00    +0.000 N 
ENDROOT
BRANCH  10  11
ATOM     11  C6  K10 L 936      29.738   1.544   6.200  0.00  0.00    +0.000 C 
ATOM     12  C7  K10 L 936      29.885   0.225   6.972  0.00  0.00    +0.000 C 
ATOM     13  C8  K10 L 936      30.759   1.587   5.060  0.00  0.00    +0.000 C 
ATOM     14  C9  K10 L 936      29.982   2.738   7.138  0.00  0.00    +0.000 C 
ENDBRANCH  10  11
BRANCH   8  15
ATOM     15  C10 K10 L 936      25.021   2.943   5.700  0.00  0.00    +0.000 C 
BRANCH  15  16
ATOM     16  C11 K10 L 936      25.038   4.389   5.212  0.00  0.00    +0.000 A 
ATOM     17  C12 K10 L 936      26.215   5.109   5.422  0.00  0.00    +0.000 A 
ATOM     18  C13 K10 L 936      26.334   6.428   5.010  0.00  0.00    +0.000 A 
ATOM     19  C14 K10 L 936      25.266   7.053   4.384  0.00  0.00    +0.000 A 
ATOM     20  C15 K10 L 936      24.085   6.344   4.176  0.00  0.00    +0.000 A 
ATOM     21  C16 K10 L 936      23.977   5.026   4.588  0.00  0.00    +0.000 A 
ATOM     22  C17 K10 L 936      22.659   4.296   4.332  0.00  0.00    +0.000 C 
ATOM     23  C18 K10 L 936      27.632   7.202   5.255  0.00  0.00    +0.000 C 
ENDBRANCH  15  16
ENDBRANCH   8  15
TORSDOF 3
ENDMDL
MODEL 3
REMARK VINA RESULT:      -7.9      0.866      2.193
REMARK  Name = ligand_pdbs\K10.pdb
REMARK  3 active torsions:
REMARK  status: ('A' for Active; 'I' for Inactive)
REMARK    1  A    between atoms: C5_8  and  C10_15
REMARK    2  A    between atoms: N5_10  and  C6_11
REMARK    3  A    between atoms: C10_15  and  C11_16
REMARK                            x       y       z     vdW  Elec       q    Type
REMARK                         _______ _______ _______ _____ _____    ______ ____
ROOT
ATOM      1  N1  K10 L 936      29.560   3.780   6.187  0.00  0.00    +0.000 NA
ATOM      2  C1  K10 L 936      29.582   2.453   6.103  0.00  0.00    +0.000 C 
ATOM      3  N2  K10 L 936      30.224   1.727   7.023  0.00  0.00    +0.000 NA
ATOM      4  C2  K10 L 936      30.249   0.403   6.962  0.00  0.00    +0.000 C 
ATOM      5  N3  K10 L 936      29.640  -0.250   5.999  0.00  0.00    +0.000 NA
ATOM      6  C3  K10 L 936      28.970   0.419   5.032  0.00  0.00    +0.000 C 
ATOM      7  C4  K10 L 936      28.935   1.804   5.073  0.00  0.00    +0.000 C 
ATOM      8  C5  K10 L 936      28.190   2.169   3.952  0.00  0.00    +0.000 C 
ATOM      9  N4  K10 L 936      27.839   1.045   3.345  0.00  0.00    +0.000 NA
ATOM     10  N5  K10 L 936      28.284   0.059   3.962  0.00  0.00    +0.000 N 
ENDROOT
BRANCH  10  11
ATOM     11  C6  K10 L 936      28.061  -1.349   3.517  0.00  0.00    +0.000 C 
ATOM     12  C7  K10 L 936      27.553  -1.344   2.067  0.00  0.00    +0.000 C 
ATOM     13  C8  K10 L 936      29.380  -2.121   3.593  0.00  0.00    +0.000 C 
ATOM     14  C9  K10 L 936      27.029  -2.023   4.437  0.00  0.00    +0.000 C 
ENDBRANCH  10  11
BRANCH   8  15
ATOM     15  C10 K10 L 936      27.886   3.593   3.485  0.00  0.00    +0.000 C 
BRANCH  15  16
ATOM     16  C11 K10 L 936      26.565   4.097   4.062  0.00  0.00    +0.000 A 
ATOM     17  C12 K10 L 936      25.460   3.257   3.928  0.00  0.00    +0.000 A 
ATOM     18  C13 K10 L 936      24.216   3.620   4.424  0.00  0.00    +0.000 A 
ATOM     19  C14 K10 L 936      24.059   4.842   5.060  0.00  0.00    +0.000 A 
ATOM     20  C15 K10 L 936      25.156   5.690   5.193  0.00  0.00    +0.000 A 
ATOM     21  C16 K10 L 936      26.395   5.317   4.698  0.00  0.00    +0.000 A 
ATOM     22  C17 K10 L 936      27.564   6.285   4.874  0.00  0.00    +0.000 C 
ATOM     23  C18 K10 L 936      23.014   2.687   4.260  0.00  0.00    +0.000 C 
ENDBRANCH  15  16
ENDBRANCH   8  15
TORSDOF 3
ENDMDL
MODEL 4
REMARK VINA RESULT:      -7.4      1.595      2.085
REMARK  Name = ligand_pdbs\K10.pdb
REMARK  3 active torsions:
REMARK  status: ('A' for Active; 'I' for Inactive)
REMARK    1  A    between atoms: C5_8  and  C10_15
REMARK    2  A    between atoms: N5_10  and  C6_11
REMARK    3  A    between atoms: C10_15  and  C11_16
REMARK                            x       y       z     vdW  Elec       q    Type
REMARK                         _______ _______ _______ _____ _____    ______ ____
ROOT
ATOM      1  N1  K10 L 936      28.747   4.080   7.243  0.00  0.00    +0.000 NA
ATOM      2  C1  K10 L 936      28.997   3.073   6.411  0.00  0.00    +0.000 C 
ATOM      3  N2  K10 L 936      30.257   2.704   6.154  0.00  0.00    +0.000 NA
ATOM      4  C2  K10 L 936      30.527   1.696   5.336  0.00  0.00    +0.000 C 
ATOM      5  N3  K10 L 936      29.569   1.016   4.748  0.00  0.00    +0.000 NA
ATOM      6  C3  K10 L 936      28.271   1.332   4.961  0.00  0.00    +0.000 C 
ATOM      7  C4  K10 L 936      27.965   2.386   5.809  0.00  0.00    +0.000 C 
ATOM      8  C5  K10 L 936      26.572   2.451   5.799  0.00  0.00    +0.000 C 
ATOM      9  N4  K10 L 936      26.151   1.485   4.996  0.00  0.00    +0.000 NA
ATOM     10  N5  K10 L 936      27.117   0.856   4.527  0.00  0.00    +0.000 N 
ENDROOT
BRANCH  10  11
ATOM     11  C6  K10 L 936      26.962  -0.288   3.579  0.00  0.00    +0.000 C 
ATOM     12  C7  K10 L 936      26.930  -1.601   4.376  0.00  0.00    +0.000 C 
ATOM     13  C8  K10 L 936      25.654  -0.130   2.801  0.00  0.00    +0.000 C 
ATOM     14  C9  K10 L 936      28.138  -0.299   2.587  0.00  0.00    +0.000 C 
ENDBRANCH  10  11
BRANCH   8  15
ATOM     15  C10 K10 L 936      25.703   3.475   6.530  0.00  0.00    +0.000 C 
BRANCH  15  16
ATOM     16  C11 K10 L 936      25.305   4.626   5.609  0.00  0.00    +0.000 A 
ATOM     17  C12 K10 L 936      26.106   5.768   5.648  0.00  0.00    +0.000 A 
ATOM     18  C13 K10 L 936      25.833   6.865   4.844  0.00  0.00    +0.000 A 
ATOM     19  C14 K10 L 936      24.742   6.838   3.990  0.00  0.00    +0.000 A 
ATOM     20  C15 K10 L 936      23.933   5.704   3.949  0.00  0.00    +0.000 A 
ATOM     21  C16 K10 L 936      24.216   4.611   4.752  0.00  0.00    +0.000 A 
ATOM     22  C17 K10 L 936      23.297   3.394   4.664  0.00  0.00    +0.000 C 
ATOM     23  C18 K10 L 936      26.720   8.111   4.907  0.00  0.00    +0.000 C 
ENDBRANCH  15  16
ENDBRANCH   8  15
TORSDOF 3
ENDMDL
MODEL 5
REMARK VINA RESULT:      -7.2      2.145      6.666
REMARK  Name = ligand_pdbs\K10.pdb
REMARK  3 active torsions:
REMARK  status: ('A' for Active; 'I' for Inactive)
REMARK    1  A    between atoms: C5_8  and  C10_15
REMARK    2  A    between atoms: N5_10  and  C6_11
REMARK    3  A    between atoms: C10_15  and  C11_16
REMARK                            x       y       z     vdW  Elec       q    Type
REMARK                         _______ _______ _______ _____ _____    ______ ____
ROOT
ATOM      1  N1  K10 L 936      24.737   1.132   3.478  0.00  0.00    +0.000 NA
ATOM      2  C1  K10 L 936      24.419   2.375   3.827  0.00  0.00    +0.000 C 
ATOM      3  N2  K10 L 936      23.153   2.693   4.117  0.00  0.00    +0.000 NA
ATOM      4  C2  K10 L 936      22.818   3.925   4.477  0.00  0.00    +0.000 C 
ATOM      5  N3  K10 L 936      23.715   4.880   4.569  0.00  0.00    +0.000 NA
ATOM      6  C3  K10 L 936      25.015   4.631   4.291  0.00  0.00    +0.000 C 
ATOM      7  C4  K10 L 936      25.388   3.352   3.907  0.00  0.00    +0.000 C 
ATOM      8  C5  K10 L 936      26.762   3.439   3.689  0.00  0.00    +0.000 C 
ATOM      9  N4  K10 L 936      27.111   4.690   3.945  0.00  0.00    +0.000 NA
ATOM     10  N5  K10 L 936      26.118   5.359   4.285  0.00  0.00    +0.000 N 
ENDROOT
BRANCH  10  11
ATOM     11  C6  K10 L 936      26.191   6.810   4.630  0.00  0.00    +0.000 C 
ATOM     12  C7  K10 L 936      25.819   7.641   3.393  0.00  0.00    +0.000 C 
ATOM     13  C8  K10 L 936      25.209   7.113   5.764  0.00  0.00    +0.000 C 
ATOM     14  C9  K10 L 936      27.616   7.159   5.093  0.00  0.00    +0.000 C 
ENDBRANCH  10  11
BRANCH   8  15
ATOM     15  C10 K10 L 936      27.679   2.318   3.195  0.00  0.00    +0.000 C 
BRANCH  15  16
ATOM     16  C11 K10 L 936      27.972   1.310   4.304  0.00  0.00    +0.000 A 
ATOM     17  C12 K10 L 936      27.435   0.031   4.148  0.00  0.00    +0.000 A 
ATOM     18  C13 K10 L 936      27.649  -0.958   5.097  0.00  0.00    +0.000 A 
ATOM     19  C14 K10 L 936      28.403  -0.677   6.227  0.00  0.00    +0.000 A 
ATOM     20  C15 K10 L 936      28.937   0.599   6.393  0.00  0.00    +0.000 A 
ATOM     21  C16 K10 L 936      28.721   1.579   5.439  0.00  0.00    +0.000 A 
ATOM     22  C17 K10 L 936      29.333   2.960   5.671  0.00  0.00    +0.000 C 
ATOM     23  C18 K10 L 936      27.047  -2.352   4.911  0.00  0.00    +0.000 C 
ENDBRANCH  15  16
ENDBRANCH   8  15
TORSDOF 3
ENDMDL
MODEL 6
REMARK VINA RESULT:      -7.0      2.262      6.465
REMARK  Name = ligand_pdbs\K10.pdb
REMARK  3 active torsions:
REMARK  status: ('A' for Active; 'I' for Inactive)
REMARK    1  A    between atoms: C5_8  and  C10_15
REMARK    2  A    between atoms: N5_10  and  C6_11
REMARK    3  A    between atoms: C10_15  and  C11_16
REMARK                            x       y       z     vdW  Elec       q    Type
REMARK                         _______ _______ _______ _____ _____    ______ ____
ROOT
ATOM      1  N1  K10 L 936      24.410   1.012   3.552  0.00  0.00    +0.000 NA
ATOM      2  C1  K10 L 936      24.173   2.283   3.863  0.00  0.00    +0.000 C 
ATOM      3  N2  K10 L 936      22.927   2.696   4.120  0.00  0.00    +0.000 NA
ATOM      4  C2  K10 L 936      22.672   3.957   4.441  0.00  0.00    +0.000 C 
ATOM      5  N3  K10 L 936      23.631   4.850   4.526  0.00  0.00    +0.000 NA
ATOM      6  C3  K10 L 936      24.916   4.504   4.279  0.00  0.00    +0.000 C 
ATOM      7  C4  K10 L 936      25.206   3.193   3.936  0.00  0.00    +0.000 C 
ATOM      8  C5  K10 L 936      26.586   3.178   3.742  0.00  0.00    +0.000 C 
ATOM      9  N4  K10 L 936      27.017   4.410   3.972  0.00  0.00    +0.000 NA
ATOM     10  N5  K10 L 936      26.066   5.154   4.276  0.00  0.00    +0.000 N 
ENDROOT
BRANCH  10  11
ATOM     11  C6  K10 L 936      26.234   6.606   4.585  0.00  0.00    +0.000 C 
ATOM     12  C7  K10 L 936      25.874   7.430   3.340  0.00  0.00    +0.000 C 
ATOM     13  C8  K10 L 936      25.306   6.991   5.739  0.00  0.00    +0.000 C 
ATOM     14  C9  K10 L 936      27.690   6.879   4.999  0.00  0.00    +0.000 C 
ENDBRANCH  10  11
BRANCH   8  15
ATOM     15  C10 K10 L 936      27.431   1.984   3.296  0.00  0.00    +0.000 C 
BRANCH  15  16
ATOM     16  C11 K10 L 936      28.251   1.419   4.453  0.00  0.00    +0.000 A 
ATOM     17  C12 K10 L 936      29.403   2.123   4.808  0.00  0.00    +0.000 A 
ATOM     18  C13 K10 L 936      30.213   1.696   5.850  0.00  0.00    +0.000 A 
ATOM     19  C14 K10 L 936      29.884   0.547   6.551  0.00  0.00    +0.000 A 
ATOM     20  C15 K10 L 936      28.740  -0.166   6.199  0.00  0.00    +0.000 A 
ATOM     21  C16 K10 L 936      27.935   0.270   5.160  0.00  0.00    +0.000 A 
ATOM     22  C17 K10 L 936      26.690  -0.548   4.819  0.00  0.00    +0.000 C 
ATOM     23  C18 K10 L 936      31.476   2.479   6.219  0.00  0.00    +0.000 C 
ENDBRANCH  15  16
ENDBRANCH   8  15
TORSDOF 3
ENDMDL
MODEL 7
REMARK VINA RESULT:      -6.5      1.538      5.671
REMARK  Name = ligand_pdbs\K10.pdb
REMARK  3 active torsions:
REMARK  status: ('A' for Active; 'I' for Inactive)
REMARK    1  A    between atoms: C5_8  and  C10_15
REMARK    2  A    between atoms: N5_10  and  C6_11
REMARK    3  A    between atoms: C10_15  and  C11_16
REMARK                            x       y       z     vdW  Elec       q    Type
REMARK                         _______ _______ _______ _____ _____    ______ ____
ROOT
ATOM      1  N1  K10 L 936      30.219   1.519   4.658  0.00  0.00    +0.000 NA
ATOM      2  C1  K10 L 936      29.405   2.338   5.317  0.00  0.00    +0.000 C 
ATOM      3  N2  K10 L 936      29.804   2.923   6.451  0.00  0.00    +0.000 NA
ATOM      4  C2  K10 L 936      29.010   3.750   7.117  0.00  0.00    +0.000 C 
ATOM      5  N3  K10 L 936      27.801   4.034   6.687  0.00  0.00    +0.000 NA
ATOM      6  C3  K10 L 936      27.330   3.479   5.546  0.00  0.00    +0.000 C 
ATOM      7  C4  K10 L 936      28.140   2.607   4.836  0.00  0.00    +0.000 C 
ATOM      8  C5  K10 L 936      27.365   2.216   3.746  0.00  0.00    +0.000 C 
ATOM      9  N4  K10 L 936      26.205   2.845   3.858  0.00  0.00    +0.000 NA
ATOM     10  N5  K10 L 936      26.192   3.558   4.878  0.00  0.00    +0.000 N 
ENDROOT
BRANCH  10  11
ATOM     11  C6  K10 L 936      25.015   4.385   5.280  0.00  0.00    +0.000 C 
ATOM     12  C7  K10 L 936      25.361   5.872   5.103  0.00  0.00    +0.000 C 
ATOM     13  C8  K10 L 936      23.818   4.029   4.396  0.00  0.00    +0.000 C 
ATOM     14  C9  K10 L 936      24.659   4.096   6.749  0.00  0.00    +0.000 C 
ENDBRANCH  10  11
BRANCH   8  15
ATOM     15  C10 K10 L 936      27.759   1.213   2.661  0.00  0.00    +0.000 C 
BRANCH  15  16
ATOM     16  C11 K10 L 936      27.741  -0.218   3.194  0.00  0.00    +0.000 A 
ATOM     17  C12 K10 L 936      28.946  -0.920   3.150  0.00  0.00    +0.000 A 
ATOM     18  C13 K10 L 936      29.035  -2.223   3.616  0.00  0.00    +0.000 A 
ATOM     19  C14 K10 L 936      27.910  -2.850   4.129  0.00  0.00    +0.000 A 
ATOM     20  C15 K10 L 936      26.701  -2.158   4.171  0.00  0.00    +0.000 A 
ATOM     21  C16 K10 L 936      26.622  -0.856   3.707  0.00  0.00    +0.000 A 
ATOM     22  C17 K10 L 936      25.272  -0.144   3.780  0.00  0.00    +0.000 C 
ATOM     23  C18 K10 L 936      30.365  -2.979   3.552  0.00  0.00    +0.000 C 
ENDBRANCH  15  16
ENDBRANCH   8  15
TORSDOF 3
ENDMDL
MODEL 8
REMARK VINA RESULT:      -6.3      2.417      6.790
REMARK  Name = ligand_pdbs\K10.pdb
REMARK  3 active torsions:
REMARK  status: ('A' for Active; 'I' for Inactive)
REMARK    1  A    between atoms: C5_8  and  C10_15
REMARK    2  A    between atoms: N5_10  and  C6_11
REMARK    3  A    between atoms: C10_15  and  C11_16
REMARK                            x       y       z     vdW  Elec       q    Type
REMARK                         _______ _______ _______ _____ _____    ______ ____
ROOT
ATOM      1  N1  K10 L 936      24.568   1.418   5.574  0.00  0.00    +0.000 NA
ATOM      2  C1  K10 L 936      24.330   2.660   5.162  0.00  0.00    +0.000 C 
ATOM      3  N2  K10 L 936      23.164   2.970   4.585  0.00  0.00    +0.000 NA
ATOM      4  C2  K10 L 936      22.905   4.205   4.177  0.00  0.00    +0.000 C 
ATOM      5  N3  K10 L 936      23.780   5.174   4.326  0.00  0.00    +0.000 NA
ATOM      6  C3  K10 L 936      24.981   4.933   4.901  0.00  0.00    +0.000 C 
ATOM      7  C4  K10 L 936      25.276   3.648   5.331  0.00  0.00    +0.000 C 
ATOM      8  C5  K10 L 936      26.565   3.741   5.852  0.00  0.00    +0.000 C 
ATOM      9  N4  K10 L 936      26.942   5.003   5.716  0.00  0.00    +0.000 NA
ATOM     10  N5  K10 L 936      26.040   5.672   5.178  0.00  0.00    +0.000 N 
ENDROOT
BRANCH  10  11
ATOM     11  C6  K10 L 936      26.172   7.130   4.883  0.00  0.00    +0.000 C 
ATOM     12  C7  K10 L 936      27.631   7.558   5.102  0.00  0.00    +0.000 C 
ATOM     13  C8  K10 L 936      25.776   7.392   3.428  0.00  0.00    +0.000 C 
ATOM     14  C9  K10 L 936      25.240   7.930   5.809  0.00  0.00    +0.000 C 
ENDBRANCH  10  11
BRANCH   8  15
ATOM     15  C10 K10 L 936      27.402   2.594   6.420  0.00  0.00    +0.000 C 
BRANCH  15  16
ATOM     16  C11 K10 L 936      28.119   1.827   5.312  0.00  0.00    +0.000 A 
ATOM     17  C12 K10 L 936      27.325   1.039   4.478  0.00  0.00    +0.000 A 
ATOM     18  C13 K10 L 936      27.879   0.308   3.438  0.00  0.00    +0.000 A 
ATOM     19  C14 K10 L 936      29.248   0.351   3.219  0.00  0.00    +0.000 A 
ATOM     20  C15 K10 L 936      30.049   1.130   4.051  0.00  0.00    +0.000 A 
ATOM     21  C16 K10 L 936      29.486   1.859   5.085  0.00  0.00    +0.000 A 
ATOM     22  C17 K10 L 936      30.412   2.699   5.964  0.00  0.00    +0.000 C 
ATOM     23  C18 K10 L 936      26.991  -0.555   2.539  0.00  0.00    +0.000 C 
ENDBRANCH  15  16
ENDBRANCH   8  15
TORSDOF 3
ENDMDL
MODEL 9
REMARK VINA RESULT:      -6.3      1.361      3.646
REMARK  Name = ligand_pdbs\K10.pdb
REMARK  3 active torsions:
REMARK  status: ('A' for Active; 'I' for Inactive)
REMARK    1  A    between atoms: C5_8  and  C10_15
REMARK    2  A    between atoms: N5_10  and  C6_11
REMARK    3  A    between atoms: C10_15  and  C11_16
REMARK                            x       y       z     vdW  Elec       q    Type
REMARK                         _______ _______ _______ _____ _____    ______ ____
ROOT
ATOM      1  N1  K10 L 936      25.902   0.756   2.217  0.00  0.00    +0.000 NA
ATOM      2  C1  K10 L 936      26.636   0.169   3.158  0.00  0.00    +0.000 C 
ATOM      3  N2  K10 L 936      26.484  -1.133   3.420  0.00  0.00    +0.000 NA
ATOM      4  C2  K10 L 936      27.213  -1.739   4.348  0.00  0.00    +0.000 C 
ATOM      5  N3  K10 L 936      28.117  -1.087   5.043  0.00  0.00    +0.000 NA
ATOM      6  C3  K10 L 936      28.325   0.234   4.832  0.00  0.00    +0.000 C 
ATOM      7  C4  K10 L 936      27.571   0.889   3.870  0.00  0.00    +0.000 C 
ATOM      8  C5  K10 L 936      28.017   2.209   3.915  0.00  0.00    +0.000 C 
ATOM      9  N4  K10 L 936      28.961   2.262   4.842  0.00  0.00    +0.000 NA
ATOM     10  N5  K10 L 936      29.130   1.140   5.356  0.00  0.00    +0.000 N 
ENDROOT
BRANCH  10  11
ATOM     11  C6  K10 L 936      30.124   0.883   6.441  0.00  0.00    +0.000 C 
ATOM     12  C7  K10 L 936      31.345   0.167   5.845  0.00  0.00    +0.000 C 
ATOM     13  C8  K10 L 936      30.562   2.214   7.056  0.00  0.00    +0.000 C 
ATOM     14  C9  K10 L 936      29.481   0.012   7.533  0.00  0.00    +0.000 C 
ENDBRANCH  10  11
BRANCH   8  15
ATOM     15  C10 K10 L 936      27.480   3.380   3.090  0.00  0.00    +0.000 C 
BRANCH  15  16
ATOM     16  C11 K10 L 936      26.379   4.127   3.837  0.00  0.00    +0.000 A 
ATOM     17  C12 K10 L 936      25.101   3.567   3.796  0.00  0.00    +0.000 A 
ATOM     18  C13 K10 L 936      24.033   4.166   4.448  0.00  0.00    +0.000 A 
ATOM     19  C14 K10 L 936      24.228   5.346   5.149  0.00  0.00    +0.000 A 
ATOM     20  C15 K10 L 936      25.499   5.915   5.190  0.00  0.00    +0.000 A 
ATOM     21  C16 K10 L 936      26.561   5.308   4.539  0.00  0.00    +0.000 A 
ATOM     22  C17 K10 L 936      27.933   5.975   4.619  0.00  0.00    +0.000 C 
ATOM     23  C18 K10 L 936      22.638   3.540   4.385  0.00  0.00    +0.000 C 
ENDBRANCH  15  16
ENDBRANCH   8  15
TORSDOF 3
ENDMDL
