MODEL 1
REMARK VINA RESULT:      -8.3      0.000      0.000
REMARK  Name = ligand_pdbs\K76.pdb
REMARK  6 active torsions:
REMARK  status: ('A' for Active; 'I' for Inactive)
REMARK    1  A    between atoms: C13_2  and  C10_5
REMARK    2  A    between atoms: C8_7  and  C12_8
REMARK    3  A    between atoms: C6_14  and  C5_15
REMARK    4  A    between atoms: N1_19  and  C3_20
REMARK    5  A    between atoms: C3_20  and  C2_21
REMARK    6  A    between atoms: C2_21  and  C1_22
REMARK                            x       y       z     vdW  Elec       q    Type
REMARK                         _______ _______ _______ _____ _____    ______ ____
ROOT
ATOM      1  C5  K76 C1101      25.660   1.671   4.590  0.00  0.00    +0.000 C 
ATOM      2  N2  K76 C1101      24.663   1.318   3.742  0.00  0.00    +0.000 NA
ATOM      3  C4  K76 C1101      23.663   2.219   3.827  0.00  0.00    +0.000 C 
ATOM      4  N3  K76 C1101      25.313   2.801   5.217  0.00  0.00    +0.000 NA
ATOM      5  N1  K76 C1101      24.060   3.126   4.707  0.00  0.00    +0.000 N 
ENDROOT
BRANCH   1  11
ATOM      6  C10 K76 C1101      29.147   0.775   5.736  0.00  0.00    +0.000 A 
ATOM      7  C9  K76 C1101      29.274  -0.478   5.170  0.00  0.00    +0.000 A 
ATOM      8  C8  K76 C1101      28.246  -1.027   4.417  0.00  0.00    +0.000 A 
ATOM      9  C7  K76 C1101      27.064  -0.332   4.236  0.00  0.00    +0.000 A 
ATOM     10  C11 K76 C1101      27.966   1.485   5.549  0.00  0.00    +0.000 A 
ATOM     11  C6  K76 C1101      26.930   0.930   4.794  0.00  0.00    +0.000 A 
BRANCH   6  13
ATOM     12  F3  K76 C1101      31.306   1.711   5.832  0.00  0.00    +0.000 F 
ATOM     13  C13 K76 C1101      30.264   1.370   6.545  0.00  0.00    +0.000 C 
ATOM     14  F5  K76 C1101      29.831   2.465   7.098  0.00  0.00    +0.000 F 
ATOM     15  F4  K76 C1101      30.645   0.513   7.469  0.00  0.00    +0.000 F 
ENDBRANCH   6  13
BRANCH   8  16
ATOM     16  C12 K76 C1101      28.428  -2.384   3.825  0.00  0.00    +0.000 C 
ATOM     17  F8  K76 C1101      27.708  -3.222   4.515  0.00  0.00    +0.000 F 
ATOM     18  F6  K76 C1101      29.694  -2.738   3.858  0.00  0.00    +0.000 F 
ATOM     19  F7  K76 C1101      28.036  -2.393   2.577  0.00  0.00    +0.000 F 
ENDBRANCH   8  16
ENDBRANCH   1  11
BRANCH   5  20
ATOM     20  C3  K76 C1101      23.475   4.346   5.271  0.00  0.00    +0.000 C 
BRANCH  20  21
ATOM     21  C2  K76 C1101      23.805   5.455   4.282  0.00  0.00    +0.000 C 
BRANCH  21  22
ATOM     22  C1  K76 C1101      24.961   6.312   4.740  0.00  0.00    +0.000 C 
ATOM     23  O   K76 C1101      24.766   7.331   5.388  0.00  0.00    +0.000 OA
ATOM     24  N1' K76 C1101      26.172   5.879   4.415  0.00  0.00    +0.000 N 
ATOM     25  C1' K76 C1101      26.620   4.711   3.680  0.00  0.00    +0.000 C 
ATOM     26  C3' K76 C1101      27.489   6.419   4.699  0.00  0.00    +0.000 C 
ATOM     27  C2' K76 C1101      28.039   5.179   3.997  0.00  0.00    +0.000 C 
ATOM     28  F2  K76 C1101      28.731   5.447   2.904  0.00  0.00    +0.000 F 
ATOM     29  F1  K76 C1101      28.642   4.323   4.807  0.00  0.00    +0.000 F 
ENDBRANCH  21  22
ENDBRANCH  20  21
ENDBRANCH   5  20
TORSDOF 6
ENDMDL
MODEL 2
REMARK VINA RESULT:      -8.2      0.069      3.156
REMARK  Name = ligand_pdbs\K76.pdb
REMARK  6 active torsions:
REMARK  status: ('A' for Active; 'I' for Inactive)
REMARK    1  A    between atoms: C13_2  and  C10_5
REMARK    2  A    between atoms: C8_7  and  C12_8
REMARK    3  A    between atoms: C6_14  and  C5_15
REMARK    4  A    between atoms: N1_19  and  C3_20
REMARK    5  A    between atoms: C3_20  and  C2_21
REMARK    6  A    between atoms: C2_21  and  C1_22
REMARK                            x       y       z     vdW  Elec       q    Type
REMARK                         _______ _______ _______ _____ _____    ______ ____
ROOT
ATOM      1  C5  K76 C1101      25.629   1.678   4.565  0.00  0.00    +0.000 C 
ATOM      2  N2  K76 C1101      24.626   1.329   3.722  0.00  0.00    +0.000 NA
ATOM      3  C4  K76 C1101      23.632   2.236   3.810  0.00  0.00    +0.000 C 
ATOM      4  N3  K76 C1101      25.291   2.812   5.191  0.00  0.00    +0.000 NA
ATOM      5  N1  K76 C1101      24.038   3.142   4.686  0.00  0.00    +0.000 N 
ENDROOT
BRANCH   1  11
ATOM      6  C10 K76 C1101      28.269  -1.020   4.402  0.00  0.00    +0.000 A 
ATOM      7  C9  K76 C1101      29.271  -0.425   5.144  0.00  0.00    +0.000 A 
ATOM      8  C8  K76 C1101      29.093   0.835   5.698  0.00  0.00    +0.000 A 
ATOM      9  C7  K76 C1101      27.910   1.525   5.502  0.00  0.00    +0.000 A 
ATOM     10  C11 K76 C1101      27.073  -0.337   4.210  0.00  0.00    +0.000 A 
ATOM     11  C6  K76 C1101      26.896   0.932   4.765  0.00  0.00    +0.000 A 
BRANCH   6  13
ATOM     12  F3  K76 C1101      29.695  -2.816   3.864  0.00  0.00    +0.000 F 
ATOM     13  C13 K76 C1101      28.461  -2.386   3.808  0.00  0.00    +0.000 C 
ATOM     14  F5  K76 C1101      27.752  -3.234   4.494  0.00  0.00    +0.000 F 
ATOM     15  F4  K76 C1101      28.071  -2.380   2.550  0.00  0.00    +0.000 F 
ENDBRANCH   6  13
BRANCH   8  16
ATOM     16  C12 K76 C1101      30.203   1.438   6.491  0.00  0.00    +0.000 C 
ATOM     17  F8  K76 C1101      30.645   0.532   7.316  0.00  0.00    +0.000 F 
ATOM     18  F6  K76 C1101      29.778   2.490   7.156  0.00  0.00    +0.000 F 
ATOM     19  F7  K76 C1101      31.172   1.822   5.701  0.00  0.00    +0.000 F 
ENDBRANCH   8  16
ENDBRANCH   1  11
BRANCH   5  20
ATOM     20  C3  K76 C1101      23.462   4.367   5.249  0.00  0.00    +0.000 C 
BRANCH  20  21
ATOM     21  C2  K76 C1101      23.806   5.475   4.263  0.00  0.00    +0.000 C 
BRANCH  21  22
ATOM     22  C1  K76 C1101      24.959   6.329   4.734  0.00  0.00    +0.000 C 
ATOM     23  O   K76 C1101      24.759   7.350   5.378  0.00  0.00    +0.000 OA
ATOM     24  N1' K76 C1101      26.172   5.893   4.423  0.00  0.00    +0.000 N 
ATOM     25  C1' K76 C1101      26.626   4.723   3.694  0.00  0.00    +0.000 C 
ATOM     26  C3' K76 C1101      27.487   6.430   4.721  0.00  0.00    +0.000 C 
ATOM     27  C2' K76 C1101      28.042   5.188   4.027  0.00  0.00    +0.000 C 
ATOM     28  F2  K76 C1101      28.747   5.453   2.942  0.00  0.00    +0.000 F 
ATOM     29  F1  K76 C1101      28.634   4.332   4.845  0.00  0.00    +0.000 F 
ENDBRANCH  21  22
ENDBRANCH  20  21
ENDBRANCH   5  20
TORSDOF 6
ENDMDL
MODEL 3
REMARK VINA RESULT:      -8.2      3.678      7.339
REMARK  Name = ligand_pdbs\K76.pdb
REMARK  6 active torsions:
REMARK  status: ('A' for Active; 'I' for Inactive)
REMARK    1  A    between atoms: C13_2  and  C10_5
REMARK    2  A    between atoms: C8_7  and  C12_8
REMARK    3  A    between atoms: C6_14  and  C5_15
REMARK    4  A    between atoms: N1_19  and  C3_20
REMARK    5  A    between atoms: C3_20  and  C2_21
REMARK    6  A    between atoms: C2_21  and  C1_22
REMARK                            x       y       z     vdW  Elec       q    Type
REMARK                         _______ _______ _______ _____ _____    ______ ____
ROOT
ATOM      1  C5  K76 C1101      28.040   3.142   5.746  0.00  0.00    +0.000 C 
ATOM      2  N2  K76 C1101      29.336   3.520   5.862  0.00  0.00    +0.000 NA
ATOM      3  C4  K76 C1101      30.087   2.449   6.192  0.00  0.00    +0.000 C 
ATOM      4  N3  K76 C1101      27.950   1.829   5.991  0.00  0.00    +0.000 NA
ATOM      5  N1  K76 C1101      29.253   1.422   6.256  0.00  0.00    +0.000 N 
ENDROOT
BRANCH   1  11
ATOM      6  C10 K76 C1101      24.586   4.349   4.800  0.00  0.00    +0.000 A 
ATOM      7  C9  K76 C1101      24.802   5.713   4.784  0.00  0.00    +0.000 A 
ATOM      8  C8  K76 C1101      26.053   6.239   5.070  0.00  0.00    +0.000 A 
ATOM      9  C7  K76 C1101      27.107   5.403   5.392  0.00  0.00    +0.000 A 
ATOM     10  C11 K76 C1101      25.643   3.501   5.113  0.00  0.00    +0.000 A 
ATOM     11  C6  K76 C1101      26.902   4.031   5.403  0.00  0.00    +0.000 A 
BRANCH   6  13
ATOM     12  F3  K76 C1101      23.144   3.262   3.287  0.00  0.00    +0.000 F 
ATOM     13  C13 K76 C1101      23.232   3.780   4.485  0.00  0.00    +0.000 C 
ATOM     14  F5  K76 C1101      22.992   2.809   5.317  0.00  0.00    +0.000 F 
ATOM     15  F4  K76 C1101      22.319   4.721   4.608  0.00  0.00    +0.000 F 
ENDBRANCH   6  13
BRANCH   8  16
ATOM     16  C12 K76 C1101      26.239   7.719   5.041  0.00  0.00    +0.000 C 
ATOM     17  F8  K76 C1101      27.517   7.963   5.106  0.00  0.00    +0.000 F 
ATOM     18  F6  K76 C1101      25.616   8.283   6.051  0.00  0.00    +0.000 F 
ATOM     19  F7  K76 C1101      25.753   8.218   3.934  0.00  0.00    +0.000 F 
ENDBRANCH   8  16
ENDBRANCH   1  11
BRANCH   5  20
ATOM     20  C3  K76 C1101      29.391  -0.004   6.565  0.00  0.00    +0.000 C 
BRANCH  20  21
ATOM     21  C2  K76 C1101      29.124  -0.736   5.257  0.00  0.00    +0.000 C 
BRANCH  21  22
ATOM     22  C1  K76 C1101      27.651  -0.960   5.011  0.00  0.00    +0.000 C 
ATOM     23  O   K76 C1101      27.004  -1.710   5.729  0.00  0.00    +0.000 OA
ATOM     24  N1' K76 C1101      27.121  -0.286   4.000  0.00  0.00    +0.000 N 
ATOM     25  C1' K76 C1101      27.694   0.650   3.050  0.00  0.00    +0.000 C 
ATOM     26  C3' K76 C1101      25.762  -0.234   3.493  0.00  0.00    +0.000 C 
ATOM     27  C2' K76 C1101      26.276   0.810   2.504  0.00  0.00    +0.000 C 
ATOM     28  F2  K76 C1101      26.185   0.438   1.239  0.00  0.00    +0.000 F 
ATOM     29  F1  K76 C1101      25.825   2.034   2.728  0.00  0.00    +0.000 F 
ENDBRANCH  21  22
ENDBRANCH  20  21
ENDBRANCH   5  20
TORSDOF 6
ENDMDL
MODEL 4
REMARK VINA RESULT:      -8.2      3.691      6.756
REMARK  Name = ligand_pdbs\K76.pdb
REMARK  6 active torsions:
REMARK  status: ('A' for Active; 'I' for Inactive)
REMARK    1  A    between atoms: C13_2  and  C10_5
REMARK    2  A    between atoms: C8_7  and  C12_8
REMARK    3  A    between atoms: C6_14  and  C5_15
REMARK    4  A    between atoms: N1_19  and  C3_20
REMARK    5  A    between atoms: C3_20  and  C2_21
REMARK    6  A    between atoms: C2_21  and  C1_22
REMARK                            x       y       z     vdW  Elec       q    Type
REMARK                         _______ _______ _______ _____ _____    ______ ____
ROOT
ATOM      1  C5  K76 C1101      28.002   3.154   5.749  0.00  0.00    +0.000 C 
ATOM      2  N2  K76 C1101      29.298   3.530   5.877  0.00  0.00    +0.000 NA
ATOM      3  C4  K76 C1101      30.046   2.454   6.196  0.00  0.00    +0.000 C 
ATOM      4  N3  K76 C1101      27.910   1.838   5.976  0.00  0.00    +0.000 NA
ATOM      5  N1  K76 C1101      29.213   1.427   6.241  0.00  0.00    +0.000 N 
ENDROOT
BRANCH   1  11
ATOM      6  C10 K76 C1101      25.961   6.256   5.051  0.00  0.00    +0.000 A 
ATOM      7  C9  K76 C1101      24.736   5.683   4.770  0.00  0.00    +0.000 A 
ATOM      8  C8  K76 C1101      24.568   4.306   4.812  0.00  0.00    +0.000 A 
ATOM      9  C7  K76 C1101      25.634   3.481   5.122  0.00  0.00    +0.000 A 
ATOM     10  C11 K76 C1101      27.034   5.433   5.374  0.00  0.00    +0.000 A 
ATOM     11  C6  K76 C1101      26.866   4.048   5.413  0.00  0.00    +0.000 A 
BRANCH   6  13
ATOM     12  F3  K76 C1101      25.543   8.375   5.991  0.00  0.00    +0.000 F 
ATOM     13  C13 K76 C1101      26.139   7.747   5.010  0.00  0.00    +0.000 C 
ATOM     14  F5  K76 C1101      27.408   8.011   5.131  0.00  0.00    +0.000 F 
ATOM     15  F4  K76 C1101      25.684   8.216   3.868  0.00  0.00    +0.000 F 
ENDBRANCH   6  13
BRANCH   8  16
ATOM     16  C12 K76 C1101      23.227   3.732   4.501  0.00  0.00    +0.000 C 
ATOM     17  F8  K76 C1101      22.989   2.783   5.361  0.00  0.00    +0.000 F 
ATOM     18  F6  K76 C1101      23.201   3.253   3.277  0.00  0.00    +0.000 F 
ATOM     19  F7  K76 C1101      22.303   4.652   4.597  0.00  0.00    +0.000 F 
ENDBRANCH   8  16
ENDBRANCH   1  11
BRANCH   5  20
ATOM     20  C3  K76 C1101      29.349  -0.004   6.531  0.00  0.00    +0.000 C 
BRANCH  20  21
ATOM     21  C2  K76 C1101      29.067  -0.718   5.216  0.00  0.00    +0.000 C 
BRANCH  21  22
ATOM     22  C1  K76 C1101      27.590  -0.925   4.977  0.00  0.00    +0.000 C 
ATOM     23  O   K76 C1101      26.936  -1.664   5.701  0.00  0.00    +0.000 OA
ATOM     24  N1' K76 C1101      27.064  -0.249   3.965  0.00  0.00    +0.000 N 
ATOM     25  C1' K76 C1101      27.644   0.675   3.008  0.00  0.00    +0.000 C 
ATOM     26  C3' K76 C1101      25.703  -0.184   3.463  0.00  0.00    +0.000 C 
ATOM     27  C2' K76 C1101      26.226   0.850   2.468  0.00  0.00    +0.000 C 
ATOM     28  F2  K76 C1101      26.125   0.473   1.205  0.00  0.00    +0.000 F 
ATOM     29  F1  K76 C1101      25.791   2.080   2.688  0.00  0.00    +0.000 F 
ENDBRANCH  21  22
ENDBRANCH  20  21
ENDBRANCH   5  20
TORSDOF 6
ENDMDL
MODEL 5
REMARK VINA RESULT:      -7.6      3.762      7.442
REMARK  Name = ligand_pdbs\K76.pdb
REMARK  6 active torsions:
REMARK  status: ('A' for Active; 'I' for Inactive)
REMARK    1  A    between atoms: C13_2  and  C10_5
REMARK    2  A    between atoms: C8_7  and  C12_8
REMARK    3  A    between atoms: C6_14  and  C5_15
REMARK    4  A    between atoms: N1_19  and  C3_20
REMARK    5  A    between atoms: C3_20  and  C2_21
REMARK    6  A    between atoms: C2_21  and  C1_22
REMARK                            x       y       z     vdW  Elec       q    Type
REMARK                         _______ _______ _______ _____ _____    ______ ____
ROOT
ATOM      1  C5  K76 C1101      28.183   3.491   6.037  0.00  0.00    +0.000 C 
ATOM      2  N2  K76 C1101      29.116   4.017   6.869  0.00  0.00    +0.000 NA
ATOM      3  C4  K76 C1101      30.058   3.087   7.129  0.00  0.00    +0.000 C 
ATOM      4  N3  K76 C1101      28.523   2.228   5.752  0.00  0.00    +0.000 NA
ATOM      5  N1  K76 C1101      29.710   2.010   6.443  0.00  0.00    +0.000 N 
ENDROOT
BRANCH   1  11
ATOM      6  C10 K76 C1101      24.708   4.158   4.714  0.00  0.00    +0.000 A 
ATOM      7  C9  K76 C1101      24.756   5.532   4.585  0.00  0.00    +0.000 A 
ATOM      8  C8  K76 C1101      25.904   6.238   4.916  0.00  0.00    +0.000 A 
ATOM      9  C7  K76 C1101      27.018   5.574   5.398  0.00  0.00    +0.000 A 
ATOM     10  C11 K76 C1101      25.827   3.483   5.187  0.00  0.00    +0.000 A 
ATOM     11  C6  K76 C1101      26.981   4.194   5.524  0.00  0.00    +0.000 A 
BRANCH   6  13
ATOM     12  F3  K76 C1101      23.544   2.783   3.196  0.00  0.00    +0.000 F 
ATOM     13  C13 K76 C1101      23.466   3.395   4.349  0.00  0.00    +0.000 C 
ATOM     14  F5  K76 C1101      23.281   2.465   5.240  0.00  0.00    +0.000 F 
ATOM     15  F4  K76 C1101      22.435   4.214   4.326  0.00  0.00    +0.000 F 
ENDBRANCH   6  13
BRANCH   8  16
ATOM     16  C12 K76 C1101      25.911   7.721   4.761  0.00  0.00    +0.000 C 
ATOM     17  F8  K76 C1101      27.137   8.134   4.914  0.00  0.00    +0.000 F 
ATOM     18  F6  K76 C1101      25.127   8.283   5.654  0.00  0.00    +0.000 F 
ATOM     19  F7  K76 C1101      25.479   8.058   3.574  0.00  0.00    +0.000 F 
ENDBRANCH   8  16
ENDBRANCH   1  11
BRANCH   5  20
ATOM     20  C3  K76 C1101      30.267   0.664   6.278  0.00  0.00    +0.000 C 
BRANCH  20  21
ATOM     21  C2  K76 C1101      29.071  -0.252   6.059  0.00  0.00    +0.000 C 
BRANCH  21  22
ATOM     22  C1  K76 C1101      28.937  -0.692   4.620  0.00  0.00    +0.000 C 
ATOM     23  O   K76 C1101      29.776  -1.421   4.108  0.00  0.00    +0.000 OA
ATOM     24  N1' K76 C1101      27.862  -0.259   3.976  0.00  0.00    +0.000 N 
ATOM     25  C1' K76 C1101      26.756   0.585   4.390  0.00  0.00    +0.000 C 
ATOM     26  C3' K76 C1101      27.401  -0.492   2.620  0.00  0.00    +0.000 C 
ATOM     27  C2' K76 C1101      26.172   0.329   3.003  0.00  0.00    +0.000 C 
ATOM     28  F2  K76 C1101      26.037   1.444   2.307  0.00  0.00    +0.000 F 
ATOM     29  F1  K76 C1101      25.056  -0.377   3.089  0.00  0.00    +0.000 F 
ENDBRANCH  21  22
ENDBRANCH  20  21
ENDBRANCH   5  20
TORSDOF 6
ENDMDL
MODEL 6
REMARK VINA RESULT:      -7.6      3.769      6.886
REMARK  Name = ligand_pdbs\K76.pdb
REMARK  6 active torsions:
REMARK  status: ('A' for Active; 'I' for Inactive)
REMARK    1  A    between atoms: C13_2  and  C10_5
REMARK    2  A    between atoms: C8_7  and  C12_8
REMARK    3  A    between atoms: C6_14  and  C5_15
REMARK    4  A    between atoms: N1_19  and  C3_20
REMARK    5  A    between atoms: C3_20  and  C2_21
REMARK    6  A    between atoms: C2_21  and  C1_22
REMARK                            x       y       z     vdW  Elec       q    Type
REMARK                         _______ _______ _______ _____ _____    ______ ____
ROOT
ATOM      1  C5  K76 C1101      28.196   3.475   6.046  0.00  0.00    +0.000 C 
ATOM      2  N2  K76 C1101      29.151   4.001   6.852  0.00  0.00    +0.000 NA
ATOM      3  C4  K76 C1101      30.084   3.062   7.112  0.00  0.00    +0.000 C 
ATOM      4  N3  K76 C1101      28.512   2.202   5.777  0.00  0.00    +0.000 NA
ATOM      5  N1  K76 C1101      29.708   1.978   6.451  0.00  0.00    +0.000 N 
ENDROOT
BRANCH   1  11
ATOM      6  C10 K76 C1101      25.870   6.223   4.902  0.00  0.00    +0.000 A 
ATOM      7  C9  K76 C1101      24.751   5.478   4.585  0.00  0.00    +0.000 A 
ATOM      8  C8  K76 C1101      24.744   4.100   4.746  0.00  0.00    +0.000 A 
ATOM      9  C7  K76 C1101      25.870   3.445   5.213  0.00  0.00    +0.000 A 
ATOM     10  C11 K76 C1101      27.001   5.574   5.382  0.00  0.00    +0.000 A 
ATOM     11  C6  K76 C1101      26.995   4.186   5.541  0.00  0.00    +0.000 A 
BRANCH   6  13
ATOM     12  F3  K76 C1101      25.122   8.345   5.600  0.00  0.00    +0.000 F 
ATOM     13  C13 K76 C1101      25.873   7.716   4.732  0.00  0.00    +0.000 C 
ATOM     14  F5  K76 C1101      27.085   8.147   4.924  0.00  0.00    +0.000 F 
ATOM     15  F4  K76 C1101      25.467   8.024   3.518  0.00  0.00    +0.000 F 
ENDBRANCH   6  13
BRANCH   8  16
ATOM     16  C12 K76 C1101      23.513   3.337   4.390  0.00  0.00    +0.000 C 
ATOM     17  F8  K76 C1101      23.727   2.740   3.252  0.00  0.00    +0.000 F 
ATOM     18  F6  K76 C1101      22.480   4.143   4.294  0.00  0.00    +0.000 F 
ATOM     19  F7  K76 C1101      23.248   2.445   5.310  0.00  0.00    +0.000 F 
ENDBRANCH   8  16
ENDBRANCH   1  11
BRANCH   5  20
ATOM     20  C3  K76 C1101      30.243   0.622   6.301  0.00  0.00    +0.000 C 
BRANCH  20  21
ATOM     21  C2  K76 C1101      29.033  -0.272   6.060  0.00  0.00    +0.000 C 
BRANCH  21  22
ATOM     22  C1  K76 C1101      28.918  -0.711   4.619  0.00  0.00    +0.000 C 
ATOM     23  O   K76 C1101      29.758  -1.447   4.120  0.00  0.00    +0.000 OA
ATOM     24  N1' K76 C1101      27.857  -0.268   3.959  0.00  0.00    +0.000 N 
ATOM     25  C1' K76 C1101      26.752   0.585   4.356  0.00  0.00    +0.000 C 
ATOM     26  C3' K76 C1101      27.415  -0.497   2.595  0.00  0.00    +0.000 C 
ATOM     27  C2' K76 C1101      26.187   0.335   2.960  0.00  0.00    +0.000 C 
ATOM     28  F2  K76 C1101      26.072   1.451   2.262  0.00  0.00    +0.000 F 
ATOM     29  F1  K76 C1101      25.064  -0.362   3.029  0.00  0.00    +0.000 F 
ENDBRANCH  21  22
ENDBRANCH  20  21
ENDBRANCH   5  20
TORSDOF 6
ENDMDL
MODEL 7
REMARK VINA RESULT:      -7.3      4.638      5.711
REMARK  Name = ligand_pdbs\K76.pdb
REMARK  6 active torsions:
REMARK  status: ('A' for Active; 'I' for Inactive)
REMARK    1  A    between atoms: C13_2  and  C10_5
REMARK    2  A    between atoms: C8_7  and  C12_8
REMARK    3  A    between atoms: C6_14  and  C5_15
REMARK    4  A    between atoms: N1_19  and  C3_20
REMARK    5  A    between atoms: C3_20  and  C2_21
REMARK    6  A    between atoms: C2_21  and  C1_22
REMARK                            x       y       z     vdW  Elec       q    Type
REMARK                         _______ _______ _______ _____ _____    ______ ____
ROOT
ATOM      1  C5  K76 C1101      25.690   5.814   4.867  0.00  0.00    +0.000 C 
ATOM      2  N2  K76 C1101      24.541   6.174   4.244  0.00  0.00    +0.000 NA
ATOM      3  C4  K76 C1101      24.221   7.437   4.591  0.00  0.00    +0.000 C 
ATOM      4  N3  K76 C1101      26.119   6.842   5.609  0.00  0.00    +0.000 NA
ATOM      5  N1  K76 C1101      25.182   7.850   5.404  0.00  0.00    +0.000 N 
ENDROOT
BRANCH   1  11
ATOM      6  C10 K76 C1101      28.140   2.982   5.367  0.00  0.00    +0.000 A 
ATOM      7  C9  K76 C1101      27.592   2.035   4.524  0.00  0.00    +0.000 A 
ATOM      8  C8  K76 C1101      26.445   2.311   3.794  0.00  0.00    +0.000 A 
ATOM      9  C7  K76 C1101      25.819   3.538   3.912  0.00  0.00    +0.000 A 
ATOM     10  C11 K76 C1101      27.523   4.222   5.483  0.00  0.00    +0.000 A 
ATOM     11  C6  K76 C1101      26.366   4.498   4.751  0.00  0.00    +0.000 A 
BRANCH   6  13
ATOM     12  F3  K76 C1101      29.430   1.465   6.626  0.00  0.00    +0.000 F 
ATOM     13  C13 K76 C1101      29.386   2.683   6.151  0.00  0.00    +0.000 C 
ATOM     14  F5  K76 C1101      30.408   2.797   5.355  0.00  0.00    +0.000 F 
ATOM     15  F4  K76 C1101      29.492   3.532   7.152  0.00  0.00    +0.000 F 
ENDBRANCH   6  13
BRANCH   8  16
ATOM     16  C12 K76 C1101      25.889   1.257   2.896  0.00  0.00    +0.000 C 
ATOM     17  F8  K76 C1101      24.773   0.834   3.418  0.00  0.00    +0.000 F 
ATOM     18  F6  K76 C1101      26.738   0.261   2.769  0.00  0.00    +0.000 F 
ATOM     19  F7  K76 C1101      25.658   1.748   1.706  0.00  0.00    +0.000 F 
ENDBRANCH   8  16
ENDBRANCH   1  11
BRANCH   5  20
ATOM     20  C3  K76 C1101      25.453   9.087   6.141  0.00  0.00    +0.000 C 
BRANCH  20  21
ATOM     21  C2  K76 C1101      24.215   9.340   6.990  0.00  0.00    +0.000 C 
BRANCH  21  22
ATOM     22  C1  K76 C1101      24.040  10.801   7.333  0.00  0.00    +0.000 C 
ATOM     23  O   K76 C1101      23.998  11.649   6.453  0.00  0.00    +0.000 OA
ATOM     24  N1' K76 C1101      23.916  11.086   8.622  0.00  0.00    +0.000 N 
ATOM     25  C1' K76 C1101      23.921  10.247   9.807  0.00  0.00    +0.000 C 
ATOM     26  C3' K76 C1101      23.714  12.349   9.307  0.00  0.00    +0.000 C 
ATOM     27  C2' K76 C1101      23.638  11.526  10.592  0.00  0.00    +0.000 C 
ATOM     28  F2  K76 C1101      24.598  11.800  11.458  0.00  0.00    +0.000 F 
ATOM     29  F1  K76 C1101      22.433  11.484  11.136  0.00  0.00    +0.000 F 
ENDBRANCH  21  22
ENDBRANCH  20  21
ENDBRANCH   5  20
TORSDOF 6
ENDMDL
MODEL 8
REMARK VINA RESULT:      -7.3      3.483      7.613
REMARK  Name = ligand_pdbs\K76.pdb
REMARK  6 active torsions:
REMARK  status: ('A' for Active; 'I' for Inactive)
REMARK    1  A    between atoms: C13_2  and  C10_5
REMARK    2  A    between atoms: C8_7  and  C12_8
REMARK    3  A    between atoms: C6_14  and  C5_15
REMARK    4  A    between atoms: N1_19  and  C3_20
REMARK    5  A    between atoms: C3_20  and  C2_21
REMARK    6  A    between atoms: C2_21  and  C1_22
REMARK                            x       y       z     vdW  Elec       q    Type
REMARK                         _______ _______ _______ _____ _____    ______ ____
ROOT
ATOM      1  C5  K76 C1101      28.165   3.695   5.854  0.00  0.00    +0.000 C 
ATOM      2  N2  K76 C1101      28.738   3.931   7.060  0.00  0.00    +0.000 NA
ATOM      3  C4  K76 C1101      29.867   3.202   7.169  0.00  0.00    +0.000 C 
ATOM      4  N3  K76 C1101      28.923   2.822   5.180  0.00  0.00    +0.000 NA
ATOM      5  N1  K76 C1101      29.990   2.542   6.028  0.00  0.00    +0.000 N 
ENDROOT
BRANCH   1  11
ATOM      6  C10 K76 C1101      24.622   4.088   4.603  0.00  0.00    +0.000 A 
ATOM      7  C9  K76 C1101      24.570   5.459   4.446  0.00  0.00    +0.000 A 
ATOM      8  C8  K76 C1101      25.673   6.250   4.735  0.00  0.00    +0.000 A 
ATOM      9  C7  K76 C1101      26.841   5.677   5.202  0.00  0.00    +0.000 A 
ATOM     10  C11 K76 C1101      25.797   3.503   5.062  0.00  0.00    +0.000 A 
ATOM     11  C6  K76 C1101      26.905   4.300   5.356  0.00  0.00    +0.000 A 
BRANCH   6  13
ATOM     12  F3  K76 C1101      23.530   2.590   3.148  0.00  0.00    +0.000 F 
ATOM     13  C13 K76 C1101      23.429   3.232   4.283  0.00  0.00    +0.000 C 
ATOM     14  F5  K76 C1101      23.320   2.321   5.205  0.00  0.00    +0.000 F 
ATOM     15  F4  K76 C1101      22.345   3.979   4.253  0.00  0.00    +0.000 F 
ENDBRANCH   6  13
BRANCH   8  16
ATOM     16  C12 K76 C1101      25.571   7.727   4.550  0.00  0.00    +0.000 C 
ATOM     17  F8  K76 C1101      26.753   8.237   4.744  0.00  0.00    +0.000 F 
ATOM     18  F6  K76 C1101      24.709   8.241   5.400  0.00  0.00    +0.000 F 
ATOM     19  F7  K76 C1101      25.164   8.009   3.340  0.00  0.00    +0.000 F 
ENDBRANCH   8  16
ENDBRANCH   1  11
BRANCH   5  20
ATOM     20  C3  K76 C1101      30.958   1.584   5.487  0.00  0.00    +0.000 C 
BRANCH  20  21
ATOM     21  C2  K76 C1101      30.701   0.277   6.226  0.00  0.00    +0.000 C 
BRANCH  21  22
ATOM     22  C1  K76 C1101      29.255  -0.154   6.149  0.00  0.00    +0.000 C 
ATOM     23  O   K76 C1101      28.519  -0.049   7.121  0.00  0.00    +0.000 OA
ATOM     24  N1' K76 C1101      28.849  -0.623   4.977  0.00  0.00    +0.000 N 
ATOM     25  C1' K76 C1101      29.540  -0.814   3.715  0.00  0.00    +0.000 C 
ATOM     26  C3' K76 C1101      27.551  -1.099   4.536  0.00  0.00    +0.000 C 
ATOM     27  C2' K76 C1101      28.190  -1.263   3.159  0.00  0.00    +0.000 C 
ATOM     28  F2  K76 C1101      28.220  -2.512   2.729  0.00  0.00    +0.000 F 
ATOM     29  F1  K76 C1101      27.750  -0.404   2.253  0.00  0.00    +0.000 F 
ENDBRANCH  21  22
ENDBRANCH  20  21
ENDBRANCH   5  20
TORSDOF 6
ENDMDL
MODEL 9
REMARK VINA RESULT:      -7.3      3.488      7.048
REMARK  Name = ligand_pdbs\K76.pdb
REMARK  6 active torsions:
REMARK  status: ('A' for Active; 'I' for Inactive)
REMARK    1  A    between atoms: C13_2  and  C10_5
REMARK    2  A    between atoms: C8_7  and  C12_8
REMARK    3  A    between atoms: C6_14  and  C5_15
REMARK    4  A    between atoms: N1_19  and  C3_20
REMARK    5  A    between atoms: C3_20  and  C2_21
REMARK    6  A    between atoms: C2_21  and  C1_22
REMARK                            x       y       z     vdW  Elec       q    Type
REMARK                         _______ _______ _______ _____ _____    ______ ____
ROOT
ATOM      1  C5  K76 C1101      28.144   3.705   5.865  0.00  0.00    +0.000 C 
ATOM      2  N2  K76 C1101      28.715   3.926   7.075  0.00  0.00    +0.000 NA
ATOM      3  C4  K76 C1101      29.843   3.194   7.176  0.00  0.00    +0.000 C 
ATOM      4  N3  K76 C1101      28.903   2.841   5.181  0.00  0.00    +0.000 NA
ATOM      5  N1  K76 C1101      29.968   2.549   6.027  0.00  0.00    +0.000 N 
ENDROOT
BRANCH   1  11
ATOM      6  C10 K76 C1101      25.602   6.256   4.720  0.00  0.00    +0.000 A 
ATOM      7  C9  K76 C1101      24.534   5.426   4.443  0.00  0.00    +0.000 A 
ATOM      8  C8  K76 C1101      24.630   4.055   4.631  0.00  0.00    +0.000 A 
ATOM      9  C7  K76 C1101      25.809   3.492   5.085  0.00  0.00    +0.000 A 
ATOM     10  C11 K76 C1101      26.787   5.699   5.188  0.00  0.00    +0.000 A 
ATOM     11  C6  K76 C1101      26.885   4.318   5.373  0.00  0.00    +0.000 A 
BRANCH   6  13
ATOM     12  F3  K76 C1101      26.630   8.375   4.663  0.00  0.00    +0.000 F 
ATOM     13  C13 K76 C1101      25.494   7.741   4.522  0.00  0.00    +0.000 C 
ATOM     14  F5  K76 C1101      25.107   7.964   3.300  0.00  0.00    +0.000 F 
ATOM     15  F4  K76 C1101      24.622   8.238   5.373  0.00  0.00    +0.000 F 
ENDBRANCH   6  13
BRANCH   8  16
ATOM     16  C12 K76 C1101      23.450   3.198   4.317  0.00  0.00    +0.000 C 
ATOM     17  F8  K76 C1101      23.324   2.324   5.275  0.00  0.00    +0.000 F 
ATOM     18  F6  K76 C1101      23.614   2.588   3.164  0.00  0.00    +0.000 F 
ATOM     19  F7  K76 C1101      22.366   3.925   4.241  0.00  0.00    +0.000 F 
ENDBRANCH   8  16
ENDBRANCH   1  11
BRANCH   5  20
ATOM     20  C3  K76 C1101      30.936   1.597   5.474  0.00  0.00    +0.000 C 
BRANCH  20  21
ATOM     21  C2  K76 C1101      30.709   0.294   6.230  0.00  0.00    +0.000 C 
BRANCH  21  22
ATOM     22  C1  K76 C1101      29.271  -0.164   6.170  0.00  0.00    +0.000 C 
ATOM     23  O   K76 C1101      28.549  -0.090   7.155  0.00  0.00    +0.000 OA
ATOM     24  N1' K76 C1101      28.854  -0.621   4.997  0.00  0.00    +0.000 N 
ATOM     25  C1' K76 C1101      29.527  -0.777   3.721  0.00  0.00    +0.000 C 
ATOM     26  C3' K76 C1101      27.558  -1.116   4.569  0.00  0.00    +0.000 C 
ATOM     27  C2' K76 C1101      28.177  -1.244   3.179  0.00  0.00    +0.000 C 
ATOM     28  F2  K76 C1101      28.224  -2.485   2.728  0.00  0.00    +0.000 F 
ATOM     29  F1  K76 C1101      27.705  -0.379   2.296  0.00  0.00    +0.000 F 
ENDBRANCH  21  22
ENDBRANCH  20  21
ENDBRANCH   5  20
TORSDOF 6
ENDMDL
