MODEL 1
REMARK VINA RESULT:      -7.1      0.000      0.000
REMARK  Name = ligand_pdbs\K85.pdb
REMARK  8 active torsions:
REMARK  status: ('A' for Active; 'I' for Inactive)
REMARK    1  A    between atoms: C17_2  and  C13_5
REMARK    2  A    between atoms: C11_8  and  O15_9
REMARK    3  A    between atoms: C9_12  and  C6_13
REMARK    4  A    between atoms: N4_17  and  C3_18
REMARK    5  A    between atoms: C3_18  and  C2_19
REMARK    6  A    between atoms: C2_19  and  C1_20
REMARK    7  A    between atoms: C1_20  and  O1'_22
REMARK    8  A    between atoms: O1'_22  and  C2'_23
REMARK                            x       y       z     vdW  Elec       q    Type
REMARK                         _______ _______ _______ _____ _____    ______ ____
ROOT
ATOM      1  C6  K85 C1101      25.975   1.664   4.675  0.00  0.00    +0.000 C 
ATOM      2  N7  K85 C1101      24.922   1.336   3.890  0.00  0.00    +0.000 NA
ATOM      3  C8  K85 C1101      23.951   2.258   4.036  0.00  0.00    +0.000 C 
ATOM      4  N5  K85 C1101      25.690   2.808   5.333  0.00  0.00    +0.000 NA
ATOM      5  N4  K85 C1101      24.410   3.152   4.905  0.00  0.00    +0.000 N 
ENDROOT
BRANCH   1  11
ATOM      6  C13 K85 C1101      28.494  -1.130   4.321  0.00  0.00    +0.000 A 
ATOM      7  C14 K85 C1101      27.312  -0.397   4.224  0.00  0.00    +0.000 A 
ATOM      8  C12 K85 C1101      29.596  -0.578   4.979  0.00  0.00    +0.000 A 
ATOM      9  C11 K85 C1101      29.515   0.704   5.533  0.00  0.00    +0.000 A 
ATOM     10  C10 K85 C1101      28.333   1.425   5.430  0.00  0.00    +0.000 A 
ATOM     11  C9  K85 C1101      27.234   0.879   4.773  0.00  0.00    +0.000 A 
BRANCH   6  13
ATOM     12  F19 K85 C1101      27.790  -3.340   4.391  0.00  0.00    +0.000 F 
ATOM     13  C17 K85 C1101      28.580  -2.513   3.734  0.00  0.00    +0.000 C 
ATOM     14  F20 K85 C1101      28.197  -2.473   2.474  0.00  0.00    +0.000 F 
ATOM     15  F18 K85 C1101      29.820  -2.962   3.764  0.00  0.00    +0.000 F 
ENDBRANCH   6  13
BRANCH   9  16
ATOM     16  O15 K85 C1101      30.571   1.286   6.193  0.00  0.00    +0.000 OA
ATOM     17  C16 K85 C1101      30.898   2.664   6.017  0.00  0.00    +0.000 C 
ENDBRANCH   9  16
ENDBRANCH   1  11
BRANCH   5  18
ATOM     18  C3  K85 C1101      23.835   4.372   5.476  0.00  0.00    +0.000 C 
BRANCH  18  19
ATOM     19  C2  K85 C1101      23.606   5.415   4.385  0.00  0.00    +0.000 C 
BRANCH  19  20
ATOM     20  C1  K85 C1101      24.645   6.505   4.470  0.00  0.00    +0.000 C 
ATOM     21  O   K85 C1101      24.457   7.502   5.148  0.00  0.00    +0.000 OA
BRANCH  20  22
ATOM     22  O1' K85 C1101      25.887   6.328   3.734  0.00  0.00    +0.000 OA
BRANCH  22  23
ATOM     23  C2' K85 C1101      26.954   5.709   4.455  0.00  0.00    +0.000 C 
ATOM     24  C4' K85 C1101      27.727   6.794   5.196  0.00  0.00    +0.000 C 
ATOM     25  C3' K85 C1101      27.859   4.963   3.481  0.00  0.00    +0.000 C 
ENDBRANCH  22  23
ENDBRANCH  20  22
ENDBRANCH  19  20
ENDBRANCH  18  19
ENDBRANCH   5  18
TORSDOF 8
ENDMDL
MODEL 2
REMARK VINA RESULT:      -7.1      1.713      2.848
REMARK  Name = ligand_pdbs\K85.pdb
REMARK  8 active torsions:
REMARK  status: ('A' for Active; 'I' for Inactive)
REMARK    1  A    between atoms: C17_2  and  C13_5
REMARK    2  A    between atoms: C11_8  and  O15_9
REMARK    3  A    between atoms: C9_12  and  C6_13
REMARK    4  A    between atoms: N4_17  and  C3_18
REMARK    5  A    between atoms: C3_18  and  C2_19
REMARK    6  A    between atoms: C2_19  and  C1_20
REMARK    7  A    between atoms: C1_20  and  O1'_22
REMARK    8  A    between atoms: O1'_22  and  C2'_23
REMARK                            x       y       z     vdW  Elec       q    Type
REMARK                         _______ _______ _______ _____ _____    ______ ____
ROOT
ATOM      1  C6  K85 C1101      27.950   3.444   4.454  0.00  0.00    +0.000 C 
ATOM      2  N7  K85 C1101      27.637   3.793   3.184  0.00  0.00    +0.000 NA
ATOM      3  C8  K85 C1101      27.421   5.121   3.125  0.00  0.00    +0.000 C 
ATOM      4  N5  K85 C1101      27.941   4.552   5.226  0.00  0.00    +0.000 NA
ATOM      5  N4  K85 C1101      27.605   5.587   4.356  0.00  0.00    +0.000 N 
ENDROOT
BRANCH   1  11
ATOM      6  C13 K85 C1101      27.821  -0.314   4.827  0.00  0.00    +0.000 A 
ATOM      7  C14 K85 C1101      27.531   0.982   4.403  0.00  0.00    +0.000 A 
ATOM      8  C12 K85 C1101      28.842  -0.522   5.759  0.00  0.00    +0.000 A 
ATOM      9  C11 K85 C1101      29.570   0.562   6.260  0.00  0.00    +0.000 A 
ATOM     10  C10 K85 C1101      29.271   1.849   5.830  0.00  0.00    +0.000 A 
ATOM     11  C9  K85 C1101      28.258   2.060   4.901  0.00  0.00    +0.000 A 
BRANCH   6  13
ATOM     12  F19 K85 C1101      26.538  -2.190   5.292  0.00  0.00    +0.000 F 
ATOM     13  C17 K85 C1101      27.034  -1.481   4.295  0.00  0.00    +0.000 C 
ATOM     14  F20 K85 C1101      26.039  -1.032   3.558  0.00  0.00    +0.000 F 
ATOM     15  F18 K85 C1101      27.787  -2.250   3.532  0.00  0.00    +0.000 F 
ENDBRANCH   6  13
BRANCH   9  16
ATOM     16  O15 K85 C1101      30.578   0.406   7.181  0.00  0.00    +0.000 OA
ATOM     17  C16 K85 C1101      31.952   0.528   6.816  0.00  0.00    +0.000 C 
ENDBRANCH   9  16
ENDBRANCH   1  11
BRANCH   5  18
ATOM     18  C3  K85 C1101      27.512   6.928   4.937  0.00  0.00    +0.000 C 
BRANCH  18  19
ATOM     19  C2  K85 C1101      26.137   7.144   5.562  0.00  0.00    +0.000 C 
BRANCH  19  20
ATOM     20  C1  K85 C1101      25.048   6.836   4.563  0.00  0.00    +0.000 C 
ATOM     21  O   K85 C1101      25.070   7.315   3.441  0.00  0.00    +0.000 OA
BRANCH  20  22
ATOM     22  O1' K85 C1101      23.979   5.938   4.969  0.00  0.00    +0.000 OA
BRANCH  22  23
ATOM     23  C2' K85 C1101      24.207   4.550   4.725  0.00  0.00    +0.000 C 
ATOM     24  C4' K85 C1101      22.909   3.931   4.218  0.00  0.00    +0.000 C 
ATOM     25  C3' K85 C1101      24.666   3.877   6.013  0.00  0.00    +0.000 C 
ENDBRANCH  22  23
ENDBRANCH  20  22
ENDBRANCH  19  20
ENDBRANCH  18  19
ENDBRANCH   5  18
TORSDOF 8
ENDMDL
MODEL 3
REMARK VINA RESULT:      -7.0      4.596      7.799
REMARK  Name = ligand_pdbs\K85.pdb
REMARK  8 active torsions:
REMARK  status: ('A' for Active; 'I' for Inactive)
REMARK    1  A    between atoms: C17_2  and  C13_5
REMARK    2  A    between atoms: C11_8  and  O15_9
REMARK    3  A    between atoms: C9_12  and  C6_13
REMARK    4  A    between atoms: N4_17  and  C3_18
REMARK    5  A    between atoms: C3_18  and  C2_19
REMARK    6  A    between atoms: C2_19  and  C1_20
REMARK    7  A    between atoms: C1_20  and  O1'_22
REMARK    8  A    between atoms: O1'_22  and  C2'_23
REMARK                            x       y       z     vdW  Elec       q    Type
REMARK                         _______ _______ _______ _____ _____    ______ ____
ROOT
ATOM      1  C6  K85 C1101      27.696   3.480   5.037  0.00  0.00    +0.000 C 
ATOM      2  N7  K85 C1101      28.443   3.321   6.154  0.00  0.00    +0.000 NA
ATOM      3  C8  K85 C1101      29.355   2.352   5.948  0.00  0.00    +0.000 C 
ATOM      4  N5  K85 C1101      28.126   2.611   4.096  0.00  0.00    +0.000 NA
ATOM      5  N4  K85 C1101      29.170   1.920   4.705  0.00  0.00    +0.000 N 
ENDROOT
BRANCH   1  11
ATOM      6  C13 K85 C1101      25.815   6.749   4.801  0.00  0.00    +0.000 A 
ATOM      7  C14 K85 C1101      26.854   5.830   4.936  0.00  0.00    +0.000 A 
ATOM      8  C12 K85 C1101      24.507   6.289   4.626  0.00  0.00    +0.000 A 
ATOM      9  C11 K85 C1101      24.243   4.916   4.583  0.00  0.00    +0.000 A 
ATOM     10  C10 K85 C1101      25.287   4.010   4.719  0.00  0.00    +0.000 A 
ATOM     11  C9  K85 C1101      26.591   4.464   4.890  0.00  0.00    +0.000 A 
BRANCH   6  13
ATOM     12  F19 K85 C1101      25.393   8.790   5.820  0.00  0.00    +0.000 F 
ATOM     13  C17 K85 C1101      26.095   8.226   4.855  0.00  0.00    +0.000 C 
ATOM     14  F20 K85 C1101      27.376   8.415   5.099  0.00  0.00    +0.000 F 
ATOM     15  F18 K85 C1101      25.814   8.803   3.703  0.00  0.00    +0.000 F 
ENDBRANCH   6  13
BRANCH   9  16
ATOM     16  O15 K85 C1101      22.973   4.418   4.417  0.00  0.00    +0.000 OA
ATOM     17  C16 K85 C1101      22.732   3.026   4.218  0.00  0.00    +0.000 C 
ENDBRANCH   9  16
ENDBRANCH   1  11
BRANCH   5  18
ATOM     18  C3  K85 C1101      29.830   0.889   3.901  0.00  0.00    +0.000 C 
BRANCH  18  19
ATOM     19  C2  K85 C1101      29.556  -0.496   4.481  0.00  0.00    +0.000 C 
BRANCH  19  20
ATOM     20  C1  K85 C1101      28.438  -1.173   3.727  0.00  0.00    +0.000 C 
ATOM     21  O   K85 C1101      28.274  -2.380   3.795  0.00  0.00    +0.000 OA
BRANCH  20  22
ATOM     22  O1' K85 C1101      27.549  -0.344   2.929  0.00  0.00    +0.000 OA
BRANCH  22  23
ATOM     23  C2' K85 C1101      26.195  -0.274   3.378  0.00  0.00    +0.000 C 
ATOM     24  C4' K85 C1101      25.508   0.879   2.655  0.00  0.00    +0.000 C 
ATOM     25  C3' K85 C1101      26.171  -0.064   4.887  0.00  0.00    +0.000 C 
ENDBRANCH  22  23
ENDBRANCH  20  22
ENDBRANCH  19  20
ENDBRANCH  18  19
ENDBRANCH   5  18
TORSDOF 8
ENDMDL
MODEL 4
REMARK VINA RESULT:      -6.9      2.324      3.077
REMARK  Name = ligand_pdbs\K85.pdb
REMARK  8 active torsions:
REMARK  status: ('A' for Active; 'I' for Inactive)
REMARK    1  A    between atoms: C17_2  and  C13_5
REMARK    2  A    between atoms: C11_8  and  O15_9
REMARK    3  A    between atoms: C9_12  and  C6_13
REMARK    4  A    between atoms: N4_17  and  C3_18
REMARK    5  A    between atoms: C3_18  and  C2_19
REMARK    6  A    between atoms: C2_19  and  C1_20
REMARK    7  A    between atoms: C1_20  and  O1'_22
REMARK    8  A    between atoms: O1'_22  and  C2'_23
REMARK                            x       y       z     vdW  Elec       q    Type
REMARK                         _______ _______ _______ _____ _____    ______ ____
ROOT
ATOM      1  C6  K85 C1101      25.729   1.499   4.302  0.00  0.00    +0.000 C 
ATOM      2  N7  K85 C1101      24.807   0.986   3.455  0.00  0.00    +0.000 NA
ATOM      3  C8  K85 C1101      23.758   1.826   3.373  0.00  0.00    +0.000 C 
ATOM      4  N5  K85 C1101      25.280   2.683   4.772  0.00  0.00    +0.000 NA
ATOM      5  N4  K85 C1101      24.038   2.856   4.166  0.00  0.00    +0.000 N 
ENDROOT
BRANCH   1  11
ATOM      6  C13 K85 C1101      29.210   0.935   5.661  0.00  0.00    +0.000 A 
ATOM      7  C14 K85 C1101      27.996   1.547   5.350  0.00  0.00    +0.000 A 
ATOM      8  C12 K85 C1101      29.446  -0.378   5.247  0.00  0.00    +0.000 A 
ATOM      9  C11 K85 C1101      28.469  -1.077   4.528  0.00  0.00    +0.000 A 
ATOM     10  C10 K85 C1101      27.264  -0.457   4.225  0.00  0.00    +0.000 A 
ATOM     11  C9  K85 C1101      27.024   0.850   4.638  0.00  0.00    +0.000 A 
BRANCH   6  13
ATOM     12  F19 K85 C1101      29.737   2.742   7.018  0.00  0.00    +0.000 F 
ATOM     13  C17 K85 C1101      30.265   1.687   6.426  0.00  0.00    +0.000 C 
ATOM     14  F20 K85 C1101      30.777   0.897   7.348  0.00  0.00    +0.000 F 
ATOM     15  F18 K85 C1101      31.245   2.066   5.630  0.00  0.00    +0.000 F 
ENDBRANCH   6  13
BRANCH   9  16
ATOM     16  O15 K85 C1101      28.659  -2.368   4.097  0.00  0.00    +0.000 OA
ATOM     17  C16 K85 C1101      29.867  -2.775   3.457  0.00  0.00    +0.000 C 
ENDBRANCH   9  16
ENDBRANCH   1  11
BRANCH   5  18
ATOM     18  C3  K85 C1101      23.306   4.077   4.508  0.00  0.00    +0.000 C 
BRANCH  18  19
ATOM     19  C2  K85 C1101      24.187   5.015   5.329  0.00  0.00    +0.000 C 
BRANCH  19  20
ATOM     20  C1  K85 C1101      24.702   6.143   4.469  0.00  0.00    +0.000 C 
ATOM     21  O   K85 C1101      24.114   7.211   4.414  0.00  0.00    +0.000 OA
BRANCH  20  22
ATOM     22  O1' K85 C1101      25.929   5.929   3.719  0.00  0.00    +0.000 OA
BRANCH  22  23
ATOM     23  C2' K85 C1101      27.067   5.539   4.488  0.00  0.00    +0.000 C 
ATOM     24  C4' K85 C1101      27.643   6.780   5.160  0.00  0.00    +0.000 C 
ATOM     25  C3' K85 C1101      28.098   4.886   3.574  0.00  0.00    +0.000 C 
ENDBRANCH  22  23
ENDBRANCH  20  22
ENDBRANCH  19  20
ENDBRANCH  18  19
ENDBRANCH   5  18
TORSDOF 8
ENDMDL
MODEL 5
REMARK VINA RESULT:      -6.7      3.985      5.134
REMARK  Name = ligand_pdbs\K85.pdb
REMARK  8 active torsions:
REMARK  status: ('A' for Active; 'I' for Inactive)
REMARK    1  A    between atoms: C17_2  and  C13_5
REMARK    2  A    between atoms: C11_8  and  O15_9
REMARK    3  A    between atoms: C9_12  and  C6_13
REMARK    4  A    between atoms: N4_17  and  C3_18
REMARK    5  A    between atoms: C3_18  and  C2_19
REMARK    6  A    between atoms: C2_19  and  C1_20
REMARK    7  A    between atoms: C1_20  and  O1'_22
REMARK    8  A    between atoms: O1'_22  and  C2'_23
REMARK                            x       y       z     vdW  Elec       q    Type
REMARK                         _______ _______ _______ _____ _____    ______ ____
ROOT
ATOM      1  C6  K85 C1101      25.926   5.773   4.800  0.00  0.00    +0.000 C 
ATOM      2  N7  K85 C1101      24.884   6.134   4.015  0.00  0.00    +0.000 NA
ATOM      3  C8  K85 C1101      24.483   7.376   4.347  0.00  0.00    +0.000 C 
ATOM      4  N5  K85 C1101      26.208   6.787   5.646  0.00  0.00    +0.000 NA
ATOM      5  N4  K85 C1101      25.281   7.778   5.331  0.00  0.00    +0.000 N 
ENDROOT
BRANCH   1  11
ATOM      6  C13 K85 C1101      26.826   2.239   3.813  0.00  0.00    +0.000 A 
ATOM      7  C14 K85 C1101      26.160   3.461   3.884  0.00  0.00    +0.000 A 
ATOM      8  C12 K85 C1101      27.968   2.029   4.592  0.00  0.00    +0.000 A 
ATOM      9  C11 K85 C1101      28.441   3.041   5.433  0.00  0.00    +0.000 A 
ATOM     10  C10 K85 C1101      27.770   4.255   5.494  0.00  0.00    +0.000 A 
ATOM     11  C9  K85 C1101      26.634   4.468   4.719  0.00  0.00    +0.000 A 
BRANCH   6  13
ATOM     12  F19 K85 C1101      27.310   0.381   2.510  0.00  0.00    +0.000 F 
ATOM     13  C17 K85 C1101      26.314   1.145   2.915  0.00  0.00    +0.000 C 
ATOM     14  F20 K85 C1101      25.456   0.402   3.584  0.00  0.00    +0.000 F 
ATOM     15  F18 K85 C1101      25.684   1.648   1.871  0.00  0.00    +0.000 F 
ENDBRANCH   6  13
BRANCH   9  16
ATOM     16  O15 K85 C1101      29.557   2.879   6.220  0.00  0.00    +0.000 OA
ATOM     17  C16 K85 C1101      30.691   2.139   5.770  0.00  0.00    +0.000 C 
ENDBRANCH   9  16
ENDBRANCH   1  11
BRANCH   5  18
ATOM     18  C3  K85 C1101      25.351   9.013   6.115  0.00  0.00    +0.000 C 
BRANCH  18  19
ATOM     19  C2  K85 C1101      23.972   9.379   6.658  0.00  0.00    +0.000 C 
BRANCH  19  20
ATOM     20  C1  K85 C1101      24.067  10.571   7.579  0.00  0.00    +0.000 C 
ATOM     21  O   K85 C1101      23.904  11.705   7.160  0.00  0.00    +0.000 OA
BRANCH  20  22
ATOM     22  O1' K85 C1101      24.343  10.329   8.986  0.00  0.00    +0.000 OA
BRANCH  22  23
ATOM     23  C2' K85 C1101      23.721  11.229   9.904  0.00  0.00    +0.000 C 
ATOM     24  C4' K85 C1101      24.710  12.341  10.234  0.00  0.00    +0.000 C 
ATOM     25  C3' K85 C1101      23.315  10.470  11.163  0.00  0.00    +0.000 C 
ENDBRANCH  22  23
ENDBRANCH  20  22
ENDBRANCH  19  20
ENDBRANCH  18  19
ENDBRANCH   5  18
TORSDOF 8
ENDMDL
MODEL 6
REMARK VINA RESULT:      -6.5      0.856      1.582
REMARK  Name = ligand_pdbs\K85.pdb
REMARK  8 active torsions:
REMARK  status: ('A' for Active; 'I' for Inactive)
REMARK    1  A    between atoms: C17_2  and  C13_5
REMARK    2  A    between atoms: C11_8  and  O15_9
REMARK    3  A    between atoms: C9_12  and  C6_13
REMARK    4  A    between atoms: N4_17  and  C3_18
REMARK    5  A    between atoms: C3_18  and  C2_19
REMARK    6  A    between atoms: C2_19  and  C1_20
REMARK    7  A    between atoms: C1_20  and  O1'_22
REMARK    8  A    between atoms: O1'_22  and  C2'_23
REMARK                            x       y       z     vdW  Elec       q    Type
REMARK                         _______ _______ _______ _____ _____    ______ ____
ROOT
ATOM      1  C6  K85 C1101      26.080   1.849   4.761  0.00  0.00    +0.000 C 
ATOM      2  N7  K85 C1101      24.921   1.498   4.158  0.00  0.00    +0.000 NA
ATOM      3  C8  K85 C1101      24.029   2.498   4.285  0.00  0.00    +0.000 C 
ATOM      4  N5  K85 C1101      25.944   3.088   5.282  0.00  0.00    +0.000 NA
ATOM      5  N4  K85 C1101      24.642   3.464   4.962  0.00  0.00    +0.000 N 
ENDROOT
BRANCH   1  11
ATOM      6  C13 K85 C1101      28.423  -1.086   4.347  0.00  0.00    +0.000 A 
ATOM      7  C14 K85 C1101      27.281  -0.289   4.286  0.00  0.00    +0.000 A 
ATOM      8  C12 K85 C1101      29.580  -0.589   4.953  0.00  0.00    +0.000 A 
ATOM      9  C11 K85 C1101      29.593   0.701   5.493  0.00  0.00    +0.000 A 
ATOM     10  C10 K85 C1101      28.449   1.486   5.426  0.00  0.00    +0.000 A 
ATOM     11  C9  K85 C1101      27.297   0.996   4.821  0.00  0.00    +0.000 A 
BRANCH   6  13
ATOM     12  F19 K85 C1101      27.991  -2.454   2.523  0.00  0.00    +0.000 F 
ATOM     13  C17 K85 C1101      28.409  -2.478   3.774  0.00  0.00    +0.000 C 
ATOM     14  F20 K85 C1101      29.630  -2.971   3.803  0.00  0.00    +0.000 F 
ATOM     15  F18 K85 C1101      27.636  -3.274   4.488  0.00  0.00    +0.000 F 
ENDBRANCH   6  13
BRANCH   9  16
ATOM     16  O15 K85 C1101      30.706   1.230   6.103  0.00  0.00    +0.000 OA
ATOM     17  C16 K85 C1101      31.002   2.624   6.044  0.00  0.00    +0.000 C 
ENDBRANCH   9  16
ENDBRANCH   1  11
BRANCH   5  18
ATOM     18  C3  K85 C1101      24.211   4.787   5.420  0.00  0.00    +0.000 C 
BRANCH  18  19
ATOM     19  C2  K85 C1101      23.973   5.712   4.230  0.00  0.00    +0.000 C 
BRANCH  19  20
ATOM     20  C1  K85 C1101      25.284   6.246   3.707  0.00  0.00    +0.000 C 
ATOM     21  O   K85 C1101      26.135   5.496   3.259  0.00  0.00    +0.000 OA
BRANCH  20  22
ATOM     22  O1' K85 C1101      25.499   7.685   3.737  0.00  0.00    +0.000 OA
BRANCH  22  23
ATOM     23  C2' K85 C1101      26.165   8.190   4.894  0.00  0.00    +0.000 C 
ATOM     24  C4' K85 C1101      27.109   7.111   5.415  0.00  0.00    +0.000 C 
ATOM     25  C3' K85 C1101      25.133   8.568   5.950  0.00  0.00    +0.000 C 
ENDBRANCH  22  23
ENDBRANCH  20  22
ENDBRANCH  19  20
ENDBRANCH  18  19
ENDBRANCH   5  18
TORSDOF 8
ENDMDL
MODEL 7
REMARK VINA RESULT:      -6.4      4.437      5.702
REMARK  Name = ligand_pdbs\K85.pdb
REMARK  8 active torsions:
REMARK  status: ('A' for Active; 'I' for Inactive)
REMARK    1  A    between atoms: C17_2  and  C13_5
REMARK    2  A    between atoms: C11_8  and  O15_9
REMARK    3  A    between atoms: C9_12  and  C6_13
REMARK    4  A    between atoms: N4_17  and  C3_18
REMARK    5  A    between atoms: C3_18  and  C2_19
REMARK    6  A    between atoms: C2_19  and  C1_20
REMARK    7  A    between atoms: C1_20  and  O1'_22
REMARK    8  A    between atoms: O1'_22  and  C2'_23
REMARK                            x       y       z     vdW  Elec       q    Type
REMARK                         _______ _______ _______ _____ _____    ______ ____
ROOT
ATOM      1  C6  K85 C1101      25.978   5.746   4.828  0.00  0.00    +0.000 C 
ATOM      2  N7  K85 C1101      24.866   6.079   4.132  0.00  0.00    +0.000 NA
ATOM      3  C8  K85 C1101      24.448   7.301   4.515  0.00  0.00    +0.000 C 
ATOM      4  N5  K85 C1101      26.288   6.758   5.668  0.00  0.00    +0.000 NA
ATOM      5  N4  K85 C1101      25.304   7.718   5.442  0.00  0.00    +0.000 N 
ENDROOT
BRANCH   1  11
ATOM      6  C13 K85 C1101      28.508   2.988   5.342  0.00  0.00    +0.000 A 
ATOM      7  C14 K85 C1101      27.810   4.184   5.495  0.00  0.00    +0.000 A 
ATOM      8  C12 K85 C1101      28.116   2.082   4.353  0.00  0.00    +0.000 A 
ATOM      9  C11 K85 C1101      27.028   2.371   3.524  0.00  0.00    +0.000 A 
ATOM     10  C10 K85 C1101      26.339   3.567   3.686  0.00  0.00    +0.000 A 
ATOM     11  C9  K85 C1101      26.725   4.470   4.671  0.00  0.00    +0.000 A 
BRANCH   6  13
ATOM     12  F19 K85 C1101      29.628   1.427   6.643  0.00  0.00    +0.000 F 
ATOM     13  C17 K85 C1101      29.686   2.678   6.227  0.00  0.00    +0.000 C 
ATOM     14  F20 K85 C1101      30.798   2.845   5.542  0.00  0.00    +0.000 F 
ATOM     15  F18 K85 C1101      29.724   3.491   7.265  0.00  0.00    +0.000 F 
ENDBRANCH   6  13
BRANCH   9  16
ATOM     16  O15 K85 C1101      26.609   1.513   2.536  0.00  0.00    +0.000 OA
ATOM     17  C16 K85 C1101      25.591   0.540   2.769  0.00  0.00    +0.000 C 
ENDBRANCH   9  16
ENDBRANCH   1  11
BRANCH   5  18
ATOM     18  C3  K85 C1101      25.389   8.944   6.239  0.00  0.00    +0.000 C 
BRANCH  18  19
ATOM     19  C2  K85 C1101      23.994   9.431   6.619  0.00  0.00    +0.000 C 
BRANCH  19  20
ATOM     20  C1  K85 C1101      24.083  10.617   7.548  0.00  0.00    +0.000 C 
ATOM     21  O   K85 C1101      23.904  11.752   7.138  0.00  0.00    +0.000 OA
BRANCH  20  22
ATOM     22  O1' K85 C1101      24.373  10.368   8.951  0.00  0.00    +0.000 OA
BRANCH  22  23
ATOM     23  C2' K85 C1101      23.711  11.224   9.883  0.00  0.00    +0.000 C 
ATOM     24  C4' K85 C1101      24.640  12.387  10.213  0.00  0.00    +0.000 C 
ATOM     25  C3' K85 C1101      23.360  10.434  11.138  0.00  0.00    +0.000 C 
ENDBRANCH  22  23
ENDBRANCH  20  22
ENDBRANCH  19  20
ENDBRANCH  18  19
ENDBRANCH   5  18
TORSDOF 8
ENDMDL
MODEL 8
REMARK VINA RESULT:      -6.1      3.619      7.388
REMARK  Name = ligand_pdbs\K85.pdb
REMARK  8 active torsions:
REMARK  status: ('A' for Active; 'I' for Inactive)
REMARK    1  A    between atoms: C17_2  and  C13_5
REMARK    2  A    between atoms: C11_8  and  O15_9
REMARK    3  A    between atoms: C9_12  and  C6_13
REMARK    4  A    between atoms: N4_17  and  C3_18
REMARK    5  A    between atoms: C3_18  and  C2_19
REMARK    6  A    between atoms: C2_19  and  C1_20
REMARK    7  A    between atoms: C1_20  and  O1'_22
REMARK    8  A    between atoms: O1'_22  and  C2'_23
REMARK                            x       y       z     vdW  Elec       q    Type
REMARK                         _______ _______ _______ _____ _____    ______ ____
ROOT
ATOM      1  C6  K85 C1101      28.082   3.108   5.619  0.00  0.00    +0.000 C 
ATOM      2  N7  K85 C1101      29.139   3.447   6.393  0.00  0.00    +0.000 NA
ATOM      3  C8  K85 C1101      30.012   2.423   6.433  0.00  0.00    +0.000 C 
ATOM      4  N5  K85 C1101      28.269   1.856   5.149  0.00  0.00    +0.000 NA
ATOM      5  N4  K85 C1101      29.493   1.457   5.682  0.00  0.00    +0.000 N 
ENDROOT
BRANCH   1  11
ATOM      6  C13 K85 C1101      24.594   4.276   4.755  0.00  0.00    +0.000 A 
ATOM      7  C14 K85 C1101      25.681   3.444   5.020  0.00  0.00    +0.000 A 
ATOM      8  C12 K85 C1101      24.759   5.662   4.807  0.00  0.00    +0.000 A 
ATOM      9  C11 K85 C1101      26.005   6.212   5.124  0.00  0.00    +0.000 A 
ATOM     10  C10 K85 C1101      27.080   5.373   5.386  0.00  0.00    +0.000 A 
ATOM     11  C9  K85 C1101      26.919   3.992   5.339  0.00  0.00    +0.000 A 
BRANCH   6  13
ATOM     12  F19 K85 C1101      23.326   3.039   3.257  0.00  0.00    +0.000 F 
ATOM     13  C17 K85 C1101      23.254   3.687   4.404  0.00  0.00    +0.000 C 
ATOM     14  F20 K85 C1101      22.894   2.839   5.346  0.00  0.00    +0.000 F 
ATOM     15  F18 K85 C1101      22.331   4.625   4.331  0.00  0.00    +0.000 F 
ENDBRANCH   6  13
BRANCH   9  16
ATOM     16  O15 K85 C1101      26.215   7.569   5.182  0.00  0.00    +0.000 OA
ATOM     17  C16 K85 C1101      25.202   8.466   5.635  0.00  0.00    +0.000 C 
ENDBRANCH   9  16
ENDBRANCH   1  11
BRANCH   5  18
ATOM     18  C3  K85 C1101      29.950   0.109   5.336  0.00  0.00    +0.000 C 
BRANCH  18  19
ATOM     19  C2  K85 C1101      29.810  -0.133   3.836  0.00  0.00    +0.000 C 
BRANCH  19  20
ATOM     20  C1  K85 C1101      29.663  -1.608   3.552  0.00  0.00    +0.000 C 
ATOM     21  O   K85 C1101      30.623  -2.359   3.607  0.00  0.00    +0.000 OA
BRANCH  20  22
ATOM     22  O1' K85 C1101      28.340  -2.115   3.224  0.00  0.00    +0.000 OA
BRANCH  22  23
ATOM     23  C2' K85 C1101      27.297  -1.763   4.134  0.00  0.00    +0.000 C 
ATOM     24  C4' K85 C1101      26.488  -3.016   4.448  0.00  0.00    +0.000 C 
ATOM     25  C3' K85 C1101      26.417  -0.688   3.507  0.00  0.00    +0.000 C 
ENDBRANCH  22  23
ENDBRANCH  20  22
ENDBRANCH  19  20
ENDBRANCH  18  19
ENDBRANCH   5  18
TORSDOF 8
ENDMDL
MODEL 9
REMARK VINA RESULT:      -5.9      2.522      3.540
REMARK  Name = ligand_pdbs\K85.pdb
REMARK  8 active torsions:
REMARK  status: ('A' for Active; 'I' for Inactive)
REMARK    1  A    between atoms: C17_2  and  C13_5
REMARK    2  A    between atoms: C11_8  and  O15_9
REMARK    3  A    between atoms: C9_12  and  C6_13
REMARK    4  A    between atoms: N4_17  and  C3_18
REMARK    5  A    between atoms: C3_18  and  C2_19
REMARK    6  A    between atoms: C2_19  and  C1_20
REMARK    7  A    between atoms: C1_20  and  O1'_22
REMARK    8  A    between atoms: O1'_22  and  C2'_23
REMARK                            x       y       z     vdW  Elec       q    Type
REMARK                         _______ _______ _______ _____ _____    ______ ____
ROOT
ATOM      1  C6  K85 C1101      25.781   1.883   4.716  0.00  0.00    +0.000 C 
ATOM      2  N7  K85 C1101      24.670   1.404   4.111  0.00  0.00    +0.000 NA
ATOM      3  C8  K85 C1101      23.737   2.373   4.057  0.00  0.00    +0.000 C 
ATOM      4  N5  K85 C1101      25.572   3.173   5.057  0.00  0.00    +0.000 NA
ATOM      5  N4  K85 C1101      24.276   3.446   4.626  0.00  0.00    +0.000 N 
ENDROOT
BRANCH   1  11
ATOM      6  C13 K85 C1101      29.261   0.932   5.840  0.00  0.00    +0.000 A 
ATOM      7  C14 K85 C1101      28.098   1.670   5.625  0.00  0.00    +0.000 A 
ATOM      8  C12 K85 C1101      29.342  -0.380   5.368  0.00  0.00    +0.000 A 
ATOM      9  C11 K85 C1101      28.262  -0.952   4.687  0.00  0.00    +0.000 A 
ATOM     10  C10 K85 C1101      27.109  -0.207   4.479  0.00  0.00    +0.000 A 
ATOM     11  C9  K85 C1101      27.023   1.099   4.951  0.00  0.00    +0.000 A 
BRANCH   6  13
ATOM     12  F19 K85 C1101      31.327   1.979   5.700  0.00  0.00    +0.000 F 
ATOM     13  C17 K85 C1101      30.428   1.548   6.565  0.00  0.00    +0.000 C 
ATOM     14  F20 K85 C1101      30.004   2.569   7.279  0.00  0.00    +0.000 F 
ATOM     15  F18 K85 C1101      30.982   0.680   7.389  0.00  0.00    +0.000 F 
ENDBRANCH   6  13
BRANCH   9  16
ATOM     16  O15 K85 C1101      28.298  -2.237   4.201  0.00  0.00    +0.000 OA
ATOM     17  C16 K85 C1101      29.428  -2.738   3.487  0.00  0.00    +0.000 C 
ENDBRANCH   9  16
ENDBRANCH   1  11
BRANCH   5  18
ATOM     18  C3  K85 C1101      23.772   4.798   4.879  0.00  0.00    +0.000 C 
BRANCH  18  19
ATOM     19  C2  K85 C1101      24.482   5.808   3.981  0.00  0.00    +0.000 C 
BRANCH  19  20
ATOM     20  C1  K85 C1101      25.737   6.315   4.647  0.00  0.00    +0.000 C 
ATOM     21  O   K85 C1101      26.838   5.918   4.301  0.00  0.00    +0.000 OA
BRANCH  20  22
ATOM     22  O1' K85 C1101      25.601   7.306   5.703  0.00  0.00    +0.000 OA
BRANCH  22  23
ATOM     23  C2' K85 C1101      24.926   8.511   5.342  0.00  0.00    +0.000 C 
ATOM     24  C4' K85 C1101      25.764   9.238   4.296  0.00  0.00    +0.000 C 
ATOM     25  C3' K85 C1101      24.731   9.375   6.582  0.00  0.00    +0.000 C 
ENDBRANCH  22  23
ENDBRANCH  20  22
ENDBRANCH  19  20
ENDBRANCH  18  19
ENDBRANCH   5  18
TORSDOF 8
ENDMDL
