MODEL 1
REMARK VINA RESULT:      -5.5      0.000      0.000
REMARK  Name = ligand_pdbs\K8H.pdb
REMARK  3 active torsions:
REMARK  status: ('A' for Active; 'I' for Inactive)
REMARK    1  A    between atoms: C6_8  and  N3_22
REMARK    2  A    between atoms: C7_9  and  C8_10
REMARK    3  A    between atoms: C8_10  and  N4_24
REMARK                            x       y       z     vdW  Elec       q    Type
REMARK                         _______ _______ _______ _____ _____    ______ ____
ROOT
ATOM      1  O1  K8H A 701      24.235  -0.137   2.743  0.00  0.00    +0.000 OA
ATOM      2  O2  K8H A 701      25.456   1.892   1.403  0.00  0.00    +0.000 OA
ATOM      3  C6  K8H A 701      25.503   2.462   3.811  0.00  0.00    +0.000 C 
ATOM      4  C7  K8H A 701      25.599   0.318   4.711  0.00  0.00    +0.000 C 
ATOM      5  O   K8H A 701      25.754   1.732   4.993  0.00  0.00    +0.000 OA
ATOM      6  C17 K8H A 701      25.553   0.190   3.168  0.00  0.00    +0.000 C 
ATOM      7  C18 K8H A 701      25.999   1.574   2.670  0.00  0.00    +0.000 C 
ENDROOT
BRANCH   3  17
ATOM      8  C1  K8H A 701      23.872   6.289   4.836  0.00  0.00    +0.000 C 
ATOM      9  C2  K8H A 701      25.511   4.893   4.263  0.00  0.00    +0.000 C 
ATOM     10  C3  K8H A 701      26.455   5.913   4.338  0.00  0.00    +0.000 C 
ATOM     11  C4  K8H A 701      27.718   5.318   4.009  0.00  0.00    +0.000 C 
ATOM     12  C5  K8H A 701      27.505   3.994   3.810  0.00  0.00    +0.000 C 
ATOM     13  N   K8H A 701      26.802   8.262   4.826  0.00  0.00    +0.000 NA
ATOM     14  C   K8H A 701      25.985   7.196   4.691  0.00  0.00    +0.000 C 
ATOM     15  N1  K8H A 701      24.673   7.363   4.969  0.00  0.00    +0.000 NA
ATOM     16  N2  K8H A 701      24.194   5.037   4.489  0.00  0.00    +0.000 NA
ATOM     17  N3  K8H A 701      26.150   3.729   3.931  0.00  0.00    +0.000 N 
ENDBRANCH   3  17
BRANCH   4  18
ATOM     18  C8  K8H A 701      26.723  -0.451   5.379  0.00  0.00    +0.000 C 
BRANCH  18  26
ATOM     19  C9  K8H A 701      28.268  -2.048   4.197  0.00  0.00    +0.000 C 
ATOM     20  C10 K8H A 701      29.749  -2.004   3.819  0.00  0.00    +0.000 C 
ATOM     21  C11 K8H A 701      30.110  -0.528   3.872  0.00  0.00    +0.000 C 
ATOM     22  C12 K8H A 701      29.149   0.027   4.944  0.00  0.00    +0.000 C 
ATOM     23  C13 K8H A 701      29.654  -0.334   6.352  0.00  0.00    +0.000 C 
ATOM     24  C14 K8H A 701      30.883   0.482   6.767  0.00  0.00    +0.000 C 
ATOM     25  C15 K8H A 701      30.322   2.243   5.246  0.00  0.00    +0.000 C 
ATOM     26  N4  K8H A 701      27.897  -0.671   4.535  0.00  0.00    +0.000 NA
ATOM     27  N5  K8H A 701      30.697   1.942   6.628  0.00  0.00    +0.000 NA
ATOM     28  C16 K8H A 701      29.034   1.550   4.832  0.00  0.00    +0.000 C 
ENDBRANCH  18  26
ENDBRANCH   4  18
TORSDOF 3
ENDMDL
MODEL 2
REMARK VINA RESULT:      -4.7      0.817      1.673
REMARK  Name = ligand_pdbs\K8H.pdb
REMARK  3 active torsions:
REMARK  status: ('A' for Active; 'I' for Inactive)
REMARK    1  A    between atoms: C6_8  and  N3_22
REMARK    2  A    between atoms: C7_9  and  C8_10
REMARK    3  A    between atoms: C8_10  and  N4_24
REMARK                            x       y       z     vdW  Elec       q    Type
REMARK                         _______ _______ _______ _____ _____    ______ ____
ROOT
ATOM      1  O1  K8H A 701      24.963  -0.282   2.162  0.00  0.00    +0.000 OA
ATOM      2  O2  K8H A 701      25.386   2.320   1.486  0.00  0.00    +0.000 OA
ATOM      3  C6  K8H A 701      24.688   2.276   3.860  0.00  0.00    +0.000 C 
ATOM      4  C7  K8H A 701      25.552   0.205   4.475  0.00  0.00    +0.000 C 
ATOM      5  O   K8H A 701      24.997   1.452   4.964  0.00  0.00    +0.000 OA
ATOM      6  C17 K8H A 701      25.879   0.436   2.979  0.00  0.00    +0.000 C 
ATOM      7  C18 K8H A 701      25.747   1.957   2.805  0.00  0.00    +0.000 C 
ENDROOT
BRANCH   3  17
ATOM      8  C1  K8H A 701      27.909   5.035   4.461  0.00  0.00    +0.000 C 
ATOM      9  C2  K8H A 701      25.770   4.413   4.472  0.00  0.00    +0.000 C 
ATOM     10  C3  K8H A 701      25.366   5.681   4.878  0.00  0.00    +0.000 C 
ATOM     11  C4  K8H A 701      23.936   5.633   4.986  0.00  0.00    +0.000 C 
ATOM     12  C5  K8H A 701      23.541   4.395   4.600  0.00  0.00    +0.000 C 
ATOM     13  N   K8H A 701      26.116   7.917   5.438  0.00  0.00    +0.000 NA
ATOM     14  C   K8H A 701      26.378   6.644   5.074  0.00  0.00    +0.000 C 
ATOM     15  N1  K8H A 701      27.664   6.307   4.829  0.00  0.00    +0.000 NA
ATOM     16  N2  K8H A 701      27.043   4.033   4.264  0.00  0.00    +0.000 NA
ATOM     17  N3  K8H A 701      24.660   3.629   4.315  0.00  0.00    +0.000 N 
ENDBRANCH   3  17
BRANCH   4  18
ATOM     18  C8  K8H A 701      26.742  -0.183   5.334  0.00  0.00    +0.000 C 
BRANCH  18  26
ATOM     19  C9  K8H A 701      28.273  -1.914   4.337  0.00  0.00    +0.000 C 
ATOM     20  C10 K8H A 701      29.776  -1.965   4.060  0.00  0.00    +0.000 C 
ATOM     21  C11 K8H A 701      30.212  -0.508   4.067  0.00  0.00    +0.000 C 
ATOM     22  C12 K8H A 701      29.214   0.148   5.043  0.00  0.00    +0.000 C 
ATOM     23  C13 K8H A 701      29.604  -0.165   6.498  0.00  0.00    +0.000 C 
ATOM     24  C14 K8H A 701      30.846   0.607   6.957  0.00  0.00    +0.000 C 
ATOM     25  C15 K8H A 701      30.482   2.315   5.320  0.00  0.00    +0.000 C 
ATOM     26  N4  K8H A 701      27.955  -0.505   4.583  0.00  0.00    +0.000 NA
ATOM     27  N5  K8H A 701      30.749   2.066   6.737  0.00  0.00    +0.000 NA
ATOM     28  C16 K8H A 701      29.188   1.668   4.852  0.00  0.00    +0.000 C 
ENDBRANCH  18  26
ENDBRANCH   4  18
TORSDOF 3
ENDMDL
MODEL 3
REMARK VINA RESULT:      -4.0      2.155      4.141
REMARK  Name = ligand_pdbs\K8H.pdb
REMARK  3 active torsions:
REMARK  status: ('A' for Active; 'I' for Inactive)
REMARK    1  A    between atoms: C6_8  and  N3_22
REMARK    2  A    between atoms: C7_9  and  C8_10
REMARK    3  A    between atoms: C8_10  and  N4_24
REMARK                            x       y       z     vdW  Elec       q    Type
REMARK                         _______ _______ _______ _____ _____    ______ ____
ROOT
ATOM      1  O1  K8H A 701      31.465   1.686   6.689  0.00  0.00    +0.000 OA
ATOM      2  O2  K8H A 701      30.072   3.956   7.247  0.00  0.00    +0.000 OA
ATOM      3  C6  K8H A 701      29.161   3.027   5.142  0.00  0.00    +0.000 C 
ATOM      4  C7  K8H A 701      29.530   0.763   5.530  0.00  0.00    +0.000 C 
ATOM      5  O   K8H A 701      28.842   1.727   4.694  0.00  0.00    +0.000 OA
ATOM      6  C17 K8H A 701      30.051   1.552   6.757  0.00  0.00    +0.000 C 
ATOM      7  C18 K8H A 701      29.331   2.906   6.656  0.00  0.00    +0.000 C 
ENDROOT
BRANCH   3  17
ATOM      8  C1  K8H A 701      25.039   3.192   6.295  0.00  0.00    +0.000 C 
ATOM      9  C2  K8H A 701      26.831   3.856   5.152  0.00  0.00    +0.000 C 
ATOM     10  C3  K8H A 701      26.115   4.891   4.559  0.00  0.00    +0.000 C 
ATOM     11  C4  K8H A 701      27.035   5.579   3.700  0.00  0.00    +0.000 C 
ATOM     12  C5  K8H A 701      28.247   4.987   3.846  0.00  0.00    +0.000 C 
ATOM     13  N   K8H A 701      23.958   5.991   4.431  0.00  0.00    +0.000 NA
ATOM     14  C   K8H A 701      24.754   5.013   4.912  0.00  0.00    +0.000 C 
ATOM     15  N1  K8H A 701      24.230   4.158   5.819  0.00  0.00    +0.000 NA
ATOM     16  N2  K8H A 701      26.328   2.962   6.021  0.00  0.00    +0.000 NA
ATOM     17  N3  K8H A 701      28.124   3.909   4.708  0.00  0.00    +0.000 N 
ENDBRANCH   3  17
BRANCH   4  18
ATOM     18  C8  K8H A 701      28.585  -0.376   5.861  0.00  0.00    +0.000 C 
BRANCH  18  26
ATOM     19  C9  K8H A 701      29.232  -1.765   3.864  0.00  0.00    +0.000 C 
ATOM     20  C10 K8H A 701      28.569  -2.056   2.517  0.00  0.00    +0.000 C 
ATOM     21  C11 K8H A 701      27.104  -1.707   2.731  0.00  0.00    +0.000 C 
ATOM     22  C12 K8H A 701      27.166  -0.597   3.801  0.00  0.00    +0.000 C 
ATOM     23  C13 K8H A 701      27.578   0.740   3.161  0.00  0.00    +0.000 C 
ATOM     24  C14 K8H A 701      26.462   1.361   2.314  0.00  0.00    +0.000 C 
ATOM     25  C15 K8H A 701      24.776   0.177   3.533  0.00  0.00    +0.000 C 
ATOM     26  N4  K8H A 701      28.185  -1.189   4.713  0.00  0.00    +0.000 NA
ATOM     27  N5  K8H A 701      25.178   1.493   3.036  0.00  0.00    +0.000 NA
ATOM     28  C16 K8H A 701      25.804  -0.422   4.480  0.00  0.00    +0.000 C 
ENDBRANCH  18  26
ENDBRANCH   4  18
TORSDOF 3
ENDMDL
MODEL 4
REMARK VINA RESULT:      -3.8      2.419      6.991
REMARK  Name = ligand_pdbs\K8H.pdb
REMARK  3 active torsions:
REMARK  status: ('A' for Active; 'I' for Inactive)
REMARK    1  A    between atoms: C6_8  and  N3_22
REMARK    2  A    between atoms: C7_9  and  C8_10
REMARK    3  A    between atoms: C8_10  and  N4_24
REMARK                            x       y       z     vdW  Elec       q    Type
REMARK                         _______ _______ _______ _____ _____    ______ ____
ROOT
ATOM      1  O1  K8H A 701      30.136   3.647   8.111  0.00  0.00    +0.000 OA
ATOM      2  O2  K8H A 701      31.266   2.897   5.751  0.00  0.00    +0.000 OA
ATOM      3  C6  K8H A 701      29.150   1.636   5.992  0.00  0.00    +0.000 C 
ATOM      4  C7  K8H A 701      27.917   3.185   7.215  0.00  0.00    +0.000 C 
ATOM      5  O   K8H A 701      27.851   1.964   6.435  0.00  0.00    +0.000 OA
ATOM      6  C17 K8H A 701      29.321   3.786   6.954  0.00  0.00    +0.000 C 
ATOM      7  C18 K8H A 701      29.854   2.974   5.763  0.00  0.00    +0.000 C 
ENDROOT
BRANCH   3  17
ATOM      8  C1  K8H A 701      27.003  -2.036   5.486  0.00  0.00    +0.000 C 
ATOM      9  C2  K8H A 701      28.307  -0.363   4.806  0.00  0.00    +0.000 C 
ATOM     10  C3  K8H A 701      28.363  -0.882   3.517  0.00  0.00    +0.000 C 
ATOM     11  C4  K8H A 701      29.179   0.018   2.754  0.00  0.00    +0.000 C 
ATOM     12  C5  K8H A 701      29.527   1.042   3.572  0.00  0.00    +0.000 C 
ATOM     13  N   K8H A 701      27.609  -2.671   2.065  0.00  0.00    +0.000 NA
ATOM     14  C   K8H A 701      27.658  -2.082   3.277  0.00  0.00    +0.000 C 
ATOM     15  N1  K8H A 701      26.948  -2.639   4.283  0.00  0.00    +0.000 NA
ATOM     16  N2  K8H A 701      27.648  -0.918   5.839  0.00  0.00    +0.000 NA
ATOM     17  N3  K8H A 701      29.025   0.801   4.841  0.00  0.00    +0.000 N 
ENDBRANCH   3  17
BRANCH   4  18
ATOM     18  C8  K8H A 701      26.758   4.086   6.833  0.00  0.00    +0.000 C 
BRANCH  18  26
ATOM     19  C9  K8H A 701      26.990   5.960   5.168  0.00  0.00    +0.000 C 
ATOM     20  C10 K8H A 701      26.416   6.215   3.774  0.00  0.00    +0.000 C 
ATOM     21  C11 K8H A 701      25.981   4.842   3.286  0.00  0.00    +0.000 C 
ATOM     22  C12 K8H A 701      25.622   4.107   4.594  0.00  0.00    +0.000 C 
ATOM     23  C13 K8H A 701      24.243   4.563   5.102  0.00  0.00    +0.000 C 
ATOM     24  C14 K8H A 701      23.089   4.013   4.258  0.00  0.00    +0.000 C 
ATOM     25  C15 K8H A 701      24.419   2.173   3.502  0.00  0.00    +0.000 C 
ATOM     26  N4  K8H A 701      26.770   4.537   5.442  0.00  0.00    +0.000 NA
ATOM     27  N5  K8H A 701      23.130   2.545   4.086  0.00  0.00    +0.000 NA
ATOM     28  C16 K8H A 701      25.592   2.591   4.374  0.00  0.00    +0.000 C 
ENDBRANCH  18  26
ENDBRANCH   4  18
TORSDOF 3
ENDMDL
MODEL 5
REMARK VINA RESULT:      -3.5      1.900      6.774
REMARK  Name = ligand_pdbs\K8H.pdb
REMARK  3 active torsions:
REMARK  status: ('A' for Active; 'I' for Inactive)
REMARK    1  A    between atoms: C6_8  and  N3_22
REMARK    2  A    between atoms: C7_9  and  C8_10
REMARK    3  A    between atoms: C8_10  and  N4_24
REMARK                            x       y       z     vdW  Elec       q    Type
REMARK                         _______ _______ _______ _____ _____    ______ ____
ROOT
ATOM      1  O1  K8H A 701      26.015   3.675   8.123  0.00  0.00    +0.000 OA
ATOM      2  O2  K8H A 701      28.580   3.318   7.286  0.00  0.00    +0.000 OA
ATOM      3  C6  K8H A 701      27.172   1.685   6.072  0.00  0.00    +0.000 C 
ATOM      4  C7  K8H A 701      25.185   2.893   5.969  0.00  0.00    +0.000 C 
ATOM      5  O   K8H A 701      25.903   1.742   5.456  0.00  0.00    +0.000 OA
ATOM      6  C17 K8H A 701      26.233   3.753   6.719  0.00  0.00    +0.000 C 
ATOM      7  C18 K8H A 701      27.579   3.140   6.303  0.00  0.00    +0.000 C 
ENDROOT
BRANCH   3  17
ATOM      8  C1  K8H A 701      27.016  -2.453   4.976  0.00  0.00    +0.000 C 
ATOM      9  C2  K8H A 701      27.885  -0.402   4.954  0.00  0.00    +0.000 C 
ATOM     10  C3  K8H A 701      28.874  -0.791   4.056  0.00  0.00    +0.000 C 
ATOM     11  C4  K8H A 701      29.668   0.376   3.801  0.00  0.00    +0.000 C 
ATOM     12  C5  K8H A 701      29.112   1.404   4.488  0.00  0.00    +0.000 C 
ATOM     13  N   K8H A 701      29.752  -2.634   2.750  0.00  0.00    +0.000 NA
ATOM     14  C   K8H A 701      28.866  -2.139   3.638  0.00  0.00    +0.000 C 
ATOM     15  N1  K8H A 701      27.897  -2.963   4.094  0.00  0.00    +0.000 NA
ATOM     16  N2  K8H A 701      26.935  -1.208   5.460  0.00  0.00    +0.000 NA
ATOM     17  N3  K8H A 701      28.039   0.930   5.225  0.00  0.00    +0.000 N 
ENDBRANCH   3  17
BRANCH   4  18
ATOM     18  C8  K8H A 701      24.486   3.599   4.822  0.00  0.00    +0.000 C 
BRANCH  18  26
ATOM     19  C9  K8H A 701      26.594   3.381   3.463  0.00  0.00    +0.000 C 
ATOM     20  C10 K8H A 701      27.558   4.388   2.835  0.00  0.00    +0.000 C 
ATOM     21  C11 K8H A 701      26.760   5.681   2.761  0.00  0.00    +0.000 C 
ATOM     22  C12 K8H A 701      25.792   5.561   3.956  0.00  0.00    +0.000 C 
ATOM     23  C13 K8H A 701      26.526   5.876   5.271  0.00  0.00    +0.000 C 
ATOM     24  C14 K8H A 701      26.836   7.368   5.433  0.00  0.00    +0.000 C 
ATOM     25  C15 K8H A 701      25.053   7.976   3.956  0.00  0.00    +0.000 C 
ATOM     26  N4  K8H A 701      25.384   4.136   3.800  0.00  0.00    +0.000 NA
ATOM     27  N5  K8H A 701      25.652   8.238   5.265  0.00  0.00    +0.000 NA
ATOM     28  C16 K8H A 701      24.615   6.528   3.800  0.00  0.00    +0.000 C 
ENDBRANCH  18  26
ENDBRANCH   4  18
TORSDOF 3
ENDMDL
MODEL 6
REMARK VINA RESULT:      -2.9      2.090      4.091
REMARK  Name = ligand_pdbs\K8H.pdb
REMARK  3 active torsions:
REMARK  status: ('A' for Active; 'I' for Inactive)
REMARK    1  A    between atoms: C6_8  and  N3_22
REMARK    2  A    between atoms: C7_9  and  C8_10
REMARK    3  A    between atoms: C8_10  and  N4_24
REMARK                            x       y       z     vdW  Elec       q    Type
REMARK                         _______ _______ _______ _____ _____    ______ ____
ROOT
ATOM      1  O1  K8H A 701      31.093   3.266   5.931  0.00  0.00    +0.000 OA
ATOM      2  O2  K8H A 701      28.906   4.569   6.893  0.00  0.00    +0.000 OA
ATOM      3  C6  K8H A 701      28.111   2.915   5.233  0.00  0.00    +0.000 C 
ATOM      4  C7  K8H A 701      29.745   1.281   5.507  0.00  0.00    +0.000 C 
ATOM      5  O   K8H A 701      28.444   1.575   4.938  0.00  0.00    +0.000 OA
ATOM      6  C17 K8H A 701      30.065   2.448   6.475  0.00  0.00    +0.000 C 
ATOM      7  C18 K8H A 701      28.729   3.196   6.603  0.00  0.00    +0.000 C 
ENDROOT
BRANCH   3  17
ATOM      8  C1  K8H A 701      25.701   6.354   4.391  0.00  0.00    +0.000 C 
ATOM      9  C2  K8H A 701      26.032   4.209   4.887  0.00  0.00    +0.000 C 
ATOM     10  C3  K8H A 701      24.666   3.950   4.846  0.00  0.00    +0.000 C 
ATOM     11  C4  K8H A 701      24.510   2.554   5.136  0.00  0.00    +0.000 C 
ATOM     12  C5  K8H A 701      25.752   2.028   5.280  0.00  0.00    +0.000 C 
ATOM     13  N   K8H A 701      22.476   4.915   4.456  0.00  0.00    +0.000 NA
ATOM     14  C   K8H A 701      23.816   5.039   4.553  0.00  0.00    +0.000 C 
ATOM     15  N1  K8H A 701      24.362   6.248   4.296  0.00  0.00    +0.000 NA
ATOM     16  N2  K8H A 701      26.602   5.408   4.680  0.00  0.00    +0.000 NA
ATOM     17  N3  K8H A 701      26.690   3.041   5.162  0.00  0.00    +0.000 N 
ENDBRANCH   3  17
BRANCH   4  18
ATOM     18  C8  K8H A 701      29.708  -0.091   6.155  0.00  0.00    +0.000 C 
BRANCH  18  26
ATOM     19  C9  K8H A 701      30.944  -1.407   4.400  0.00  0.00    +0.000 C 
ATOM     20  C10 K8H A 701      30.504  -2.232   3.191  0.00  0.00    +0.000 C 
ATOM     21  C11 K8H A 701      29.041  -2.550   3.460  0.00  0.00    +0.000 C 
ATOM     22  C12 K8H A 701      28.573  -1.342   4.298  0.00  0.00    +0.000 C 
ATOM     23  C13 K8H A 701      28.329  -0.124   3.390  0.00  0.00    +0.000 C 
ATOM     24  C14 K8H A 701      27.060  -0.263   2.541  0.00  0.00    +0.000 C 
ATOM     25  C15 K8H A 701      26.098  -1.809   4.095  0.00  0.00    +0.000 C 
ATOM     26  N4  K8H A 701      29.741  -1.210   5.214  0.00  0.00    +0.000 NA
ATOM     27  N5  K8H A 701      25.853  -0.585   3.332  0.00  0.00    +0.000 NA
ATOM     28  C16 K8H A 701      27.277  -1.671   5.046  0.00  0.00    +0.000 C 
ENDBRANCH  18  26
ENDBRANCH   4  18
TORSDOF 3
ENDMDL
MODEL 7
REMARK VINA RESULT:      -2.9      1.351      2.989
REMARK  Name = ligand_pdbs\K8H.pdb
REMARK  3 active torsions:
REMARK  status: ('A' for Active; 'I' for Inactive)
REMARK    1  A    between atoms: C6_8  and  N3_22
REMARK    2  A    between atoms: C7_9  and  C8_10
REMARK    3  A    between atoms: C8_10  and  N4_24
REMARK                            x       y       z     vdW  Elec       q    Type
REMARK                         _______ _______ _______ _____ _____    ______ ____
ROOT
ATOM      1  O1  K8H A 701      25.398   0.232   4.219  0.00  0.00    +0.000 OA
ATOM      2  O2  K8H A 701      24.183   2.202   2.787  0.00  0.00    +0.000 OA
ATOM      3  C6  K8H A 701      25.079   3.232   4.851  0.00  0.00    +0.000 C 
ATOM      4  C7  K8H A 701      26.927   1.860   5.194  0.00  0.00    +0.000 C 
ATOM      5  O   K8H A 701      26.283   3.101   5.577  0.00  0.00    +0.000 OA
ATOM      6  C17 K8H A 701      26.195   1.371   3.919  0.00  0.00    +0.000 C 
ATOM      7  C18 K8H A 701      25.348   2.581   3.495  0.00  0.00    +0.000 C 
ENDROOT
BRANCH   3  17
ATOM      8  C1  K8H A 701      27.575   6.686   5.291  0.00  0.00    +0.000 C 
ATOM      9  C2  K8H A 701      25.635   5.639   4.973  0.00  0.00    +0.000 C 
ATOM     10  C3  K8H A 701      24.965   6.848   4.823  0.00  0.00    +0.000 C 
ATOM     11  C4  K8H A 701      23.590   6.520   4.581  0.00  0.00    +0.000 C 
ATOM     12  C5  K8H A 701      23.495   5.168   4.539  0.00  0.00    +0.000 C 
ATOM     13  N   K8H A 701      25.210   9.260   4.783  0.00  0.00    +0.000 NA
ATOM     14  C   K8H A 701      25.734   8.026   4.936  0.00  0.00    +0.000 C 
ATOM     15  N1  K8H A 701      27.066   7.924   5.146  0.00  0.00    +0.000 NA
ATOM     16  N2  K8H A 701      26.949   5.505   5.227  0.00  0.00    +0.000 NA
ATOM     17  N3  K8H A 701      24.738   4.618   4.812  0.00  0.00    +0.000 N 
ENDBRANCH   3  17
BRANCH   4  18
ATOM     18  C8  K8H A 701      28.415   2.101   5.021  0.00  0.00    +0.000 C 
BRANCH  18  26
ATOM     19  C9  K8H A 701      30.637   1.667   6.122  0.00  0.00    +0.000 C 
ATOM     20  C10 K8H A 701      31.424   0.400   6.454  0.00  0.00    +0.000 C 
ATOM     21  C11 K8H A 701      30.387  -0.712   6.420  0.00  0.00    +0.000 C 
ATOM     22  C12 K8H A 701      29.360  -0.196   5.391  0.00  0.00    +0.000 C 
ATOM     23  C13 K8H A 701      29.889  -0.399   3.960  0.00  0.00    +0.000 C 
ATOM     24  C14 K8H A 701      29.867  -1.868   3.524  0.00  0.00    +0.000 C 
ATOM     25  C15 K8H A 701      28.139  -2.388   5.097  0.00  0.00    +0.000 C 
ATOM     26  N4  K8H A 701      29.271   1.228   5.823  0.00  0.00    +0.000 NA
ATOM     27  N5  K8H A 701      28.549  -2.516   3.699  0.00  0.00    +0.000 NA
ATOM     28  C16 K8H A 701      28.027  -0.937   5.537  0.00  0.00    +0.000 C 
ENDBRANCH  18  26
ENDBRANCH   4  18
TORSDOF 3
ENDMDL
MODEL 8
REMARK VINA RESULT:      -2.7      2.220      3.681
REMARK  Name = ligand_pdbs\K8H.pdb
REMARK  3 active torsions:
REMARK  status: ('A' for Active; 'I' for Inactive)
REMARK    1  A    between atoms: C6_8  and  N3_22
REMARK    2  A    between atoms: C7_9  and  C8_10
REMARK    3  A    between atoms: C8_10  and  N4_24
REMARK                            x       y       z     vdW  Elec       q    Type
REMARK                         _______ _______ _______ _____ _____    ______ ____
ROOT
ATOM      1  O1  K8H A 701      28.668  -2.464   3.850  0.00  0.00    +0.000 OA
ATOM      2  O2  K8H A 701      27.806  -0.648   2.016  0.00  0.00    +0.000 OA
ATOM      3  C6  K8H A 701      26.406  -0.378   4.039  0.00  0.00    +0.000 C 
ATOM      4  C7  K8H A 701      27.954  -0.999   5.661  0.00  0.00    +0.000 C 
ATOM      5  O   K8H A 701      26.668  -0.372   5.426  0.00  0.00    +0.000 OA
ATOM      6  C17 K8H A 701      28.640  -1.108   4.277  0.00  0.00    +0.000 C 
ATOM      7  C18 K8H A 701      27.771  -0.227   3.366  0.00  0.00    +0.000 C 
ENDROOT
BRANCH   3  17
ATOM      8  C1  K8H A 701      25.250   2.979   6.435  0.00  0.00    +0.000 C 
ATOM      9  C2  K8H A 701      25.177   1.687   4.623  0.00  0.00    +0.000 C 
ATOM     10  C3  K8H A 701      24.262   2.536   4.009  0.00  0.00    +0.000 C 
ATOM     11  C4  K8H A 701      23.980   1.965   2.724  0.00  0.00    +0.000 C 
ATOM     12  C5  K8H A 701      24.753   0.859   2.592  0.00  0.00    +0.000 C 
ATOM     13  N   K8H A 701      22.995   4.589   4.245  0.00  0.00    +0.000 NA
ATOM     14  C   K8H A 701      23.854   3.674   4.738  0.00  0.00    +0.000 C 
ATOM     15  N1  K8H A 701      24.389   3.899   5.959  0.00  0.00    +0.000 NA
ATOM     16  N2  K8H A 701      25.692   1.859   5.853  0.00  0.00    +0.000 NA
ATOM     17  N3  K8H A 701      25.466   0.661   3.764  0.00  0.00    +0.000 N 
ENDBRANCH   3  17
BRANCH   4  18
ATOM     18  C8  K8H A 701      28.723  -0.192   6.691  0.00  0.00    +0.000 C 
BRANCH  18  26
ATOM     19  C9  K8H A 701      31.155   0.443   6.828  0.00  0.00    +0.000 C 
ATOM     20  C10 K8H A 701      31.949   1.687   6.427  0.00  0.00    +0.000 C 
ATOM     21  C11 K8H A 701      31.052   2.404   5.430  0.00  0.00    +0.000 C 
ATOM     22  C12 K8H A 701      29.634   2.006   5.889  0.00  0.00    +0.000 C 
ATOM     23  C13 K8H A 701      29.223   2.826   7.124  0.00  0.00    +0.000 C 
ATOM     24  C14 K8H A 701      28.905   4.287   6.785  0.00  0.00    +0.000 C 
ATOM     25  C15 K8H A 701      28.405   3.730   4.512  0.00  0.00    +0.000 C 
ATOM     26  N4  K8H A 701      29.859   0.556   6.153  0.00  0.00    +0.000 NA
ATOM     27  N5  K8H A 701      27.917   4.438   5.695  0.00  0.00    +0.000 NA
ATOM     28  C16 K8H A 701      28.615   2.246   4.772  0.00  0.00    +0.000 C 
ENDBRANCH  18  26
ENDBRANCH   4  18
TORSDOF 3
ENDMDL
MODEL 9
REMARK VINA RESULT:      -2.7      2.192      4.248
REMARK  Name = ligand_pdbs\K8H.pdb
REMARK  3 active torsions:
REMARK  status: ('A' for Active; 'I' for Inactive)
REMARK    1  A    between atoms: C6_8  and  N3_22
REMARK    2  A    between atoms: C7_9  and  C8_10
REMARK    3  A    between atoms: C8_10  and  N4_24
REMARK                            x       y       z     vdW  Elec       q    Type
REMARK                         _______ _______ _______ _____ _____    ______ ____
ROOT
ATOM      1  O1  K8H A 701      31.402   2.709   5.825  0.00  0.00    +0.000 OA
ATOM      2  O2  K8H A 701      29.356   3.017   7.594  0.00  0.00    +0.000 OA
ATOM      3  C6  K8H A 701      28.452   3.459   5.333  0.00  0.00    +0.000 C 
ATOM      4  C7  K8H A 701      29.824   2.050   4.089  0.00  0.00    +0.000 C 
ATOM      5  O   K8H A 701      28.617   2.853   4.069  0.00  0.00    +0.000 OA
ATOM      6  C17 K8H A 701      30.237   1.932   5.577  0.00  0.00    +0.000 C 
ATOM      7  C18 K8H A 701      29.012   2.456   6.342  0.00  0.00    +0.000 C 
ENDROOT
BRANCH   3  17
ATOM      8  C1  K8H A 701      26.113   6.492   3.414  0.00  0.00    +0.000 C 
ATOM      9  C2  K8H A 701      26.434   4.791   4.815  0.00  0.00    +0.000 C 
ATOM     10  C3  K8H A 701      25.090   4.785   5.174  0.00  0.00    +0.000 C 
ATOM     11  C4  K8H A 701      24.932   3.728   6.130  0.00  0.00    +0.000 C 
ATOM     12  C5  K8H A 701      26.136   3.119   6.266  0.00  0.00    +0.000 C 
ATOM     13  N   K8H A 701      22.934   5.828   4.800  0.00  0.00    +0.000 NA
ATOM     14  C   K8H A 701      24.259   5.747   4.561  0.00  0.00    +0.000 C 
ATOM     15  N1  K8H A 701      24.791   6.589   3.646  0.00  0.00    +0.000 NA
ATOM     16  N2  K8H A 701      27.002   5.643   3.944  0.00  0.00    +0.000 NA
ATOM     17  N3  K8H A 701      27.071   3.784   5.489  0.00  0.00    +0.000 N 
ENDBRANCH   3  17
BRANCH   4  18
ATOM     18  C8  K8H A 701      29.557   0.728   3.396  0.00  0.00    +0.000 C 
BRANCH  18  26
ATOM     19  C9  K8H A 701      27.316   1.732   2.839  0.00  0.00    +0.000 C 
ATOM     20  C10 K8H A 701      25.882   1.204   2.872  0.00  0.00    +0.000 C 
ATOM     21  C11 K8H A 701      26.034  -0.309   2.871  0.00  0.00    +0.000 C 
ATOM     22  C12 K8H A 701      27.387  -0.521   3.583  0.00  0.00    +0.000 C 
ATOM     23  C13 K8H A 701      27.221  -0.357   5.104  0.00  0.00    +0.000 C 
ATOM     24  C14 K8H A 701      26.484  -1.535   5.750  0.00  0.00    +0.000 C 
ATOM     25  C15 K8H A 701      27.109  -3.003   3.966  0.00  0.00    +0.000 C 
ATOM     26  N4  K8H A 701      28.183   0.553   2.925  0.00  0.00    +0.000 NA
ATOM     27  N5  K8H A 701      27.072  -2.851   5.420  0.00  0.00    +0.000 NA
ATOM     28  C16 K8H A 701      27.938  -1.920   3.292  0.00  0.00    +0.000 C 
ENDBRANCH  18  26
ENDBRANCH   4  18
TORSDOF 3
ENDMDL
