MODEL 1
REMARK VINA RESULT:      -7.1      0.000      0.000
REMARK  Name = ligand_pdbs\LB3.pdb
REMARK  1 active torsions:
REMARK  status: ('A' for Active; 'I' for Inactive)
REMARK    1  A    between atoms: C5_4  and  C6_5
REMARK                            x       y       z     vdW  Elec       q    Type
REMARK                         _______ _______ _______ _____ _____    ______ ____
ROOT
ATOM      1  N1  LB3 A 707      24.445   5.159   5.175  0.00  0.00    +0.000 NA
ATOM      2  N3  LB3 A 707      25.733   8.633   5.029  0.00  0.00    +0.000 NA
ATOM      3  C6  LB3 A 707      27.452   1.013   3.186  0.00  0.00    +0.000 C 
ATOM      4  C7  LB3 A 707      25.948   1.005   3.518  0.00  0.00    +0.000 C 
ATOM      5  C8  LB3 A 707      25.424   1.724   4.749  0.00  0.00    +0.000 C 
ATOM      6  C10 LB3 A 707      25.174   6.339   5.155  0.00  0.00    +0.000 C 
ATOM      7  C13 LB3 A 707      26.530   6.086   4.988  0.00  0.00    +0.000 C 
ATOM      8  C15 LB3 A 707      27.951   4.072   4.934  0.00  0.00    +0.000 C 
ATOM      9  C17 LB3 A 707      28.815   1.882   5.355  0.00  0.00    +0.000 C 
ATOM     10  C9  LB3 A 707      25.355   4.238   4.949  0.00  0.00    +0.000 C 
ATOM     11  O   LB3 A 707      28.081   3.397   3.696  0.00  0.00    +0.000 OA
ATOM     12  O2  LB3 A 707      30.224   2.006   5.467  0.00  0.00    +0.000 OA
ATOM     13  C11 LB3 A 707      24.773   7.690   5.172  0.00  0.00    +0.000 C 
ATOM     14  C12 LB3 A 707      27.007   8.241   4.878  0.00  0.00    +0.000 C 
ATOM     15  N   LB3 A 707      24.930   3.060   4.445  0.00  0.00    +0.000 NA
ATOM     16  N2  LB3 A 707      23.498   8.086   5.257  0.00  0.00    +0.000 NA
ATOM     17  C16 LB3 A 707      28.041   3.013   6.039  0.00  0.00    +0.000 C 
ATOM     18  N5  LB3 A 707      26.646   4.710   4.912  0.00  0.00    +0.000 N 
ATOM     19  N4  LB3 A 707      27.503   7.000   4.851  0.00  0.00    +0.000 NA
ATOM     20  C14 LB3 A 707      28.394   2.010   3.894  0.00  0.00    +0.000 C 
ATOM     21  O1  LB3 A 707      28.621   3.490   7.247  0.00  0.00    +0.000 OA
ENDROOT
BRANCH   3  23
ATOM     22  C4  LB3 A 707      29.448  -0.521   3.049  0.00  0.00    +0.000 A 
ATOM     23  C5  LB3 A 707      28.091  -0.358   3.320  0.00  0.00    +0.000 A 
ATOM     24  F1  LB3 A 707      31.366  -1.894   3.109  0.00  0.00    +0.000 F 
ATOM     25  F   LB3 A 707      29.904  -4.004   3.881  0.00  0.00    +0.000 F 
ATOM     26  C3  LB3 A 707      30.029  -1.753   3.232  0.00  0.00    +0.000 A 
ATOM     27  C   LB3 A 707      29.284  -2.835   3.639  0.00  0.00    +0.000 A 
ATOM     28  C2  LB3 A 707      27.342  -1.470   3.706  0.00  0.00    +0.000 A 
ATOM     29  C1  LB3 A 707      27.937  -2.713   3.860  0.00  0.00    +0.000 A 
ENDBRANCH   3  23
TORSDOF 1
ENDMDL
MODEL 2
REMARK VINA RESULT:      -4.2      4.563      8.210
REMARK  Name = ligand_pdbs\LB3.pdb
REMARK  1 active torsions:
REMARK  status: ('A' for Active; 'I' for Inactive)
REMARK    1  A    between atoms: C5_4  and  C6_5
REMARK                            x       y       z     vdW  Elec       q    Type
REMARK                         _______ _______ _______ _____ _____    ______ ____
ROOT
ATOM      1  N1  LB3 A 707      29.701   0.415   4.995  0.00  0.00    +0.000 NA
ATOM      2  N3  LB3 A 707      29.153  -2.515   2.791  0.00  0.00    +0.000 NA
ATOM      3  C6  LB3 A 707      27.030   5.121   4.049  0.00  0.00    +0.000 C 
ATOM      4  C7  LB3 A 707      28.274   4.911   4.933  0.00  0.00    +0.000 C 
ATOM      5  C8  LB3 A 707      28.405   3.672   5.800  0.00  0.00    +0.000 C 
ATOM      6  C10 LB3 A 707      29.238  -0.584   4.151  0.00  0.00    +0.000 C 
ATOM      7  C13 LB3 A 707      28.024  -0.229   3.577  0.00  0.00    +0.000 C 
ATOM      8  C15 LB3 A 707      26.418   1.621   3.858  0.00  0.00    +0.000 C 
ATOM      9  C17 LB3 A 707      25.112   3.378   4.822  0.00  0.00    +0.000 C 
ATOM     10  C9  LB3 A 707      28.806   1.367   4.858  0.00  0.00    +0.000 C 
ATOM     11  O   LB3 A 707      26.656   2.809   3.125  0.00  0.00    +0.000 OA
ATOM     12  O2  LB3 A 707      23.806   3.271   4.279  0.00  0.00    +0.000 OA
ATOM     13  C11 LB3 A 707      29.818  -1.793   3.722  0.00  0.00    +0.000 C 
ATOM     14  C12 LB3 A 707      27.984  -2.049   2.326  0.00  0.00    +0.000 C 
ATOM     15  N   LB3 A 707      29.190   2.624   5.161  0.00  0.00    +0.000 NA
ATOM     16  N2  LB3 A 707      31.014  -2.232   4.133  0.00  0.00    +0.000 NA
ATOM     17  C16 LB3 A 707      25.745   2.028   5.174  0.00  0.00    +0.000 C 
ATOM     18  N5  LB3 A 707      27.720   1.021   4.088  0.00  0.00    +0.000 N 
ATOM     19  N4  LB3 A 707      27.339  -0.927   2.659  0.00  0.00    +0.000 NA
ATOM     20  C14 LB3 A 707      26.068   3.946   3.778  0.00  0.00    +0.000 C 
ATOM     21  O1  LB3 A 707      24.839   1.056   5.681  0.00  0.00    +0.000 OA
ENDROOT
BRANCH   3  23
ATOM     22  C4  LB3 A 707      26.512   6.984   5.667  0.00  0.00    +0.000 A 
ATOM     23  C5  LB3 A 707      26.172   6.286   4.510  0.00  0.00    +0.000 A 
ATOM     24  F1  LB3 A 707      26.161   8.842   7.078  0.00  0.00    +0.000 F 
ATOM     25  F   LB3 A 707      24.000   9.577   5.673  0.00  0.00    +0.000 F 
ATOM     26  C3  LB3 A 707      25.763   8.074   6.042  0.00  0.00    +0.000 A 
ATOM     27  C   LB3 A 707      24.661   8.461   5.317  0.00  0.00    +0.000 A 
ATOM     28  C2  LB3 A 707      25.035   6.672   3.799  0.00  0.00    +0.000 A 
ATOM     29  C1  LB3 A 707      24.273   7.758   4.205  0.00  0.00    +0.000 A 
ENDBRANCH   3  23
TORSDOF 1
ENDMDL
