MODEL 1
REMARK VINA RESULT:      -2.9      0.000      0.000
REMARK  Name = ligand_pdbs\LMB.pdb
REMARK  19 active torsions:
REMARK  status: ('A' for Active; 'I' for Inactive)
REMARK    1  A    between atoms: C24_2  and  C23_4
REMARK    2  A    between atoms: C22_5  and  C21_7
REMARK    3  A    between atoms: C21_7  and  C20_8
REMARK    4  A    between atoms: C20_8  and  C19_10
REMARK    5  A    between atoms: C19_10  and  C18_12
REMARK    6  A    between atoms: C18_12  and  C17_14
REMARK    7  A    between atoms: C17_14  and  C16_16
REMARK    8  A    between atoms: C16_16  and  C15_18
REMARK    9  A    between atoms: C14_19  and  C13_21
REMARK   10  A    between atoms: C12_22  and  C11_23
REMARK   11  A    between atoms: C11_23  and  C10_24
REMARK   12  A    between atoms: C10_24  and  C9_26
REMARK   13  A    between atoms: C8_27  and  C26_28
REMARK   14  A    between atoms: C8_27  and  C7_30
REMARK   15  A    between atoms: C6_31  and  C5_32
REMARK   16  A    between atoms: C5_32  and  C4_34
REMARK   17  A    between atoms: C4_34  and  C3_36
REMARK   18  A    between atoms: C3_36  and  C2_37
REMARK   19  A    between atoms: C2_37  and  C1_38
REMARK                            x       y       z     vdW  Elec       q    Type
REMARK                         _______ _______ _______ _____ _____    ______ ____
ROOT
ATOM      1  C15 LMB C1101      25.725   1.127   3.009  0.00  0.00    +0.000 C 
ATOM      2  C14 LMB C1101      25.151   1.258   4.219  0.00  0.00    +0.000 C 
ATOM      3  C29 LMB C1101      25.359   0.260   5.326  0.00  0.00    +0.000 C 
ENDROOT
BRANCH   1   4
ATOM      4  C16 LMB C1101      26.621  -0.028   2.630  0.00  0.00    +0.000 C 
ATOM      5  C30 LMB C1101      26.692  -0.072   1.107  0.00  0.00    +0.000 C 
BRANCH   4   6
ATOM      6  C17 LMB C1101      28.000   0.152   3.178  0.00  0.00    +0.000 C 
ATOM      7  O3  LMB C1101      28.689   1.071   2.763  0.00  0.00    +0.000 OA
BRANCH   6   8
ATOM      8  C18 LMB C1101      28.515  -0.816   4.207  0.00  0.00    +0.000 C 
ATOM      9  C31 LMB C1101      28.642  -2.183   3.530  0.00  0.00    +0.000 C 
BRANCH   8  10
ATOM     10  C19 LMB C1101      29.859  -0.370   4.800  0.00  0.00    +0.000 C 
ATOM     11  O4  LMB C1101      30.829  -1.406   4.596  0.00  0.00    +0.000 OA
BRANCH  10  12
ATOM     12  C20 LMB C1101      29.826  -0.051   6.300  0.00  0.00    +0.000 C 
ATOM     13  C32 LMB C1101      31.153   0.540   6.764  0.00  0.00    +0.000 C 
BRANCH  12  14
ATOM     14  C21 LMB C1101      28.686   0.904   6.659  0.00  0.00    +0.000 C 
BRANCH  14  16
ATOM     15  C23 LMB C1101      27.860   2.928   5.505  0.00  0.00    +0.000 C 
ATOM     16  C22 LMB C1101      28.906   2.265   6.036  0.00  0.00    +0.000 C 
ATOM     17  C33 LMB C1101      30.287   2.859   6.059  0.00  0.00    +0.000 C 
BRANCH  15  19
ATOM     18  O6  LMB C1101      28.162   5.290   5.549  0.00  0.00    +0.000 OA
ATOM     19  C24 LMB C1101      27.999   4.258   4.867  0.00  0.00    +0.000 C 
ATOM     20  O5  LMB C1101      27.960   4.330   3.624  0.00  0.00    +0.000 OA
ENDBRANCH  15  19
ENDBRANCH  14  16
ENDBRANCH  12  14
ENDBRANCH  10  12
ENDBRANCH   8  10
ENDBRANCH   6   8
ENDBRANCH   4   6
ENDBRANCH   1   4
BRANCH   2  21
ATOM     21  C13 LMB C1101      24.270   2.425   4.410  0.00  0.00    +0.000 C 
ATOM     22  C12 LMB C1101      24.590   3.645   3.998  0.00  0.00    +0.000 C 
BRANCH  22  23
ATOM     23  C11 LMB C1101      23.625   4.778   4.275  0.00  0.00    +0.000 C 
BRANCH  23  24
ATOM     24  C10 LMB C1101      24.191   5.702   5.338  0.00  0.00    +0.000 C 
ATOM     25  C28 LMB C1101      24.841   4.893   6.456  0.00  0.00    +0.000 C 
BRANCH  24  26
ATOM     26  C9  LMB C1101      25.257   6.593   4.739  0.00  0.00    +0.000 C 
ATOM     27  C8  LMB C1101      25.376   7.923   4.950  0.00  0.00    +0.000 C 
BRANCH  27  28
ATOM     28  C26 LMB C1101      26.510   8.685   4.284  0.00  0.00    +0.000 C 
ATOM     29  C27 LMB C1101      26.048   9.911   3.522  0.00  0.00    +0.000 C 
ENDBRANCH  27  28
BRANCH  27  30
ATOM     30  C7  LMB C1101      24.413   8.682   5.794  0.00  0.00    +0.000 C 
ATOM     31  C6  LMB C1101      24.808   9.425   6.830  0.00  0.00    +0.000 C 
BRANCH  31  32
ATOM     32  C5  LMB C1101      23.783  10.201   7.623  0.00  0.00    +0.000 C 
ATOM     33  O2  LMB C1101      23.689  11.466   6.950  0.00  0.00    +0.000 OA
BRANCH  32  34
ATOM     34  C4  LMB C1101      24.091  10.452   9.102  0.00  0.00    +0.000 C 
ATOM     35  C25 LMB C1101      25.463   9.913   9.478  0.00  0.00    +0.000 C 
BRANCH  34  36
ATOM     36  C3  LMB C1101      24.004  11.950   9.448  0.00  0.00    +0.000 C 
BRANCH  36  37
ATOM     37  C2  LMB C1101      22.913  12.217  10.496  0.00  0.00    +0.000 C 
BRANCH  37  38
ATOM     38  C1  LMB C1101      23.336  11.927  11.913  0.00  0.00    +0.000 C 
ATOM     39  O1' LMB C1101      24.176  12.702  12.421  0.00  0.00    +0.000 OA
ATOM     40  O1  LMB C1101      22.861  10.929  12.501  0.00  0.00    +0.000 OA
ENDBRANCH  37  38
ENDBRANCH  36  37
ENDBRANCH  34  36
ENDBRANCH  32  34
ENDBRANCH  31  32
ENDBRANCH  27  30
ENDBRANCH  24  26
ENDBRANCH  23  24
ENDBRANCH  22  23
ENDBRANCH   2  21
TORSDOF 19
ENDMDL
MODEL 2
REMARK VINA RESULT:      -2.3      1.737      9.717
REMARK  Name = ligand_pdbs\LMB.pdb
REMARK  19 active torsions:
REMARK  status: ('A' for Active; 'I' for Inactive)
REMARK    1  A    between atoms: C24_2  and  C23_4
REMARK    2  A    between atoms: C22_5  and  C21_7
REMARK    3  A    between atoms: C21_7  and  C20_8
REMARK    4  A    between atoms: C20_8  and  C19_10
REMARK    5  A    between atoms: C19_10  and  C18_12
REMARK    6  A    between atoms: C18_12  and  C17_14
REMARK    7  A    between atoms: C17_14  and  C16_16
REMARK    8  A    between atoms: C16_16  and  C15_18
REMARK    9  A    between atoms: C14_19  and  C13_21
REMARK   10  A    between atoms: C12_22  and  C11_23
REMARK   11  A    between atoms: C11_23  and  C10_24
REMARK   12  A    between atoms: C10_24  and  C9_26
REMARK   13  A    between atoms: C8_27  and  C26_28
REMARK   14  A    between atoms: C8_27  and  C7_30
REMARK   15  A    between atoms: C6_31  and  C5_32
REMARK   16  A    between atoms: C5_32  and  C4_34
REMARK   17  A    between atoms: C4_34  and  C3_36
REMARK   18  A    between atoms: C3_36  and  C2_37
REMARK   19  A    between atoms: C2_37  and  C1_38
REMARK                            x       y       z     vdW  Elec       q    Type
REMARK                         _______ _______ _______ _____ _____    ______ ____
ROOT
ATOM      1  C15 LMB C1101      26.264   4.844   4.210  0.00  0.00    +0.000 C 
ATOM      2  C14 LMB C1101      25.134   4.113   4.221  0.00  0.00    +0.000 C 
ATOM      3  C29 LMB C1101      23.946   4.469   5.074  0.00  0.00    +0.000 C 
ENDROOT
BRANCH   1   4
ATOM      4  C16 LMB C1101      26.464   6.081   5.053  0.00  0.00    +0.000 C 
ATOM      5  C30 LMB C1101      27.967   6.307   5.183  0.00  0.00    +0.000 C 
BRANCH   4   6
ATOM      6  C17 LMB C1101      25.844   7.281   4.412  0.00  0.00    +0.000 C 
ATOM      7  O3  LMB C1101      25.394   7.185   3.280  0.00  0.00    +0.000 OA
BRANCH   6   8
ATOM      8  C18 LMB C1101      25.812   8.583   5.165  0.00  0.00    +0.000 C 
ATOM      9  C31 LMB C1101      25.681   9.707   4.134  0.00  0.00    +0.000 C 
BRANCH   8  10
ATOM     10  C19 LMB C1101      24.664   8.635   6.183  0.00  0.00    +0.000 C 
ATOM     11  O4  LMB C1101      23.421   8.429   5.499  0.00  0.00    +0.000 OA
BRANCH  10  12
ATOM     12  C20 LMB C1101      24.556   9.951   6.962  0.00  0.00    +0.000 C 
ATOM     13  C32 LMB C1101      23.107  10.420   7.047  0.00  0.00    +0.000 C 
BRANCH  12  14
ATOM     14  C21 LMB C1101      25.141   9.835   8.371  0.00  0.00    +0.000 C 
BRANCH  14  16
ATOM     15  C23 LMB C1101      24.038  10.226  10.549  0.00  0.00    +0.000 C 
ATOM     16  C22 LMB C1101      24.384  10.715   9.342  0.00  0.00    +0.000 C 
ATOM     17  C33 LMB C1101      24.070  12.131   8.945  0.00  0.00    +0.000 C 
BRANCH  15  19
ATOM     18  O6  LMB C1101      23.798  12.019  12.098  0.00  0.00    +0.000 OA
ATOM     19  C24 LMB C1101      23.287  11.023  11.548  0.00  0.00    +0.000 C 
ATOM     20  O5  LMB C1101      22.121  10.684  11.825  0.00  0.00    +0.000 OA
ENDBRANCH  15  19
ENDBRANCH  14  16
ENDBRANCH  12  14
ENDBRANCH  10  12
ENDBRANCH   8  10
ENDBRANCH   6   8
ENDBRANCH   4   6
ENDBRANCH   1   4
BRANCH   2  21
ATOM     21  C13 LMB C1101      25.117   2.909   3.368  0.00  0.00    +0.000 C 
ATOM     22  C12 LMB C1101      26.221   2.267   3.006  0.00  0.00    +0.000 C 
BRANCH  22  23
ATOM     23  C11 LMB C1101      26.090   1.060   2.102  0.00  0.00    +0.000 C 
BRANCH  23  24
ATOM     24  C10 LMB C1101      27.293   0.149   2.267  0.00  0.00    +0.000 C 
ATOM     25  C28 LMB C1101      28.432   0.890   2.959  0.00  0.00    +0.000 C 
BRANCH  24  26
ATOM     26  C9  LMB C1101      26.930  -1.040   3.129  0.00  0.00    +0.000 C 
ATOM     27  C8  LMB C1101      27.591  -1.433   4.241  0.00  0.00    +0.000 C 
BRANCH  27  28
ATOM     28  C26 LMB C1101      27.100  -2.648   5.012  0.00  0.00    +0.000 C 
ATOM     29  C27 LMB C1101      26.051  -3.450   4.269  0.00  0.00    +0.000 C 
ENDBRANCH  27  28
BRANCH  27  30
ATOM     30  C7  LMB C1101      28.810  -0.731   4.730  0.00  0.00    +0.000 C 
ATOM     31  C6  LMB C1101      28.886  -0.205   5.954  0.00  0.00    +0.000 C 
BRANCH  31  32
ATOM     32  C5  LMB C1101      30.165   0.461   6.400  0.00  0.00    +0.000 C 
ATOM     33  O2  LMB C1101      30.408  -0.067   7.714  0.00  0.00    +0.000 OA
BRANCH  32  34
ATOM     34  C4  LMB C1101      30.165   1.990   6.478  0.00  0.00    +0.000 C 
ATOM     35  C25 LMB C1101      31.393   2.575   5.798  0.00  0.00    +0.000 C 
BRANCH  34  36
ATOM     36  C3  LMB C1101      28.888   2.585   5.856  0.00  0.00    +0.000 C 
BRANCH  36  37
ATOM     37  C2  LMB C1101      28.094   3.401   6.888  0.00  0.00    +0.000 C 
BRANCH  37  38
ATOM     38  C1  LMB C1101      26.671   2.942   7.071  0.00  0.00    +0.000 C 
ATOM     39  O1' LMB C1101      26.305   1.955   6.397  0.00  0.00    +0.000 OA
ATOM     40  O1  LMB C1101      25.922   3.570   7.854  0.00  0.00    +0.000 OA
ENDBRANCH  37  38
ENDBRANCH  36  37
ENDBRANCH  34  36
ENDBRANCH  32  34
ENDBRANCH  31  32
ENDBRANCH  27  30
ENDBRANCH  24  26
ENDBRANCH  23  24
ENDBRANCH  22  23
ENDBRANCH   2  21
TORSDOF 19
ENDMDL
MODEL 3
REMARK VINA RESULT:      -2.2      1.573      9.350
REMARK  Name = ligand_pdbs\LMB.pdb
REMARK  19 active torsions:
REMARK  status: ('A' for Active; 'I' for Inactive)
REMARK    1  A    between atoms: C24_2  and  C23_4
REMARK    2  A    between atoms: C22_5  and  C21_7
REMARK    3  A    between atoms: C21_7  and  C20_8
REMARK    4  A    between atoms: C20_8  and  C19_10
REMARK    5  A    between atoms: C19_10  and  C18_12
REMARK    6  A    between atoms: C18_12  and  C17_14
REMARK    7  A    between atoms: C17_14  and  C16_16
REMARK    8  A    between atoms: C16_16  and  C15_18
REMARK    9  A    between atoms: C14_19  and  C13_21
REMARK   10  A    between atoms: C12_22  and  C11_23
REMARK   11  A    between atoms: C11_23  and  C10_24
REMARK   12  A    between atoms: C10_24  and  C9_26
REMARK   13  A    between atoms: C8_27  and  C26_28
REMARK   14  A    between atoms: C8_27  and  C7_30
REMARK   15  A    between atoms: C6_31  and  C5_32
REMARK   16  A    between atoms: C5_32  and  C4_34
REMARK   17  A    between atoms: C4_34  and  C3_36
REMARK   18  A    between atoms: C3_36  and  C2_37
REMARK   19  A    between atoms: C2_37  and  C1_38
REMARK                            x       y       z     vdW  Elec       q    Type
REMARK                         _______ _______ _______ _____ _____    ______ ____
ROOT
ATOM      1  C15 LMB C1101      25.061   3.568   4.090  0.00  0.00    +0.000 C 
ATOM      2  C14 LMB C1101      24.149   2.582   4.014  0.00  0.00    +0.000 C 
ATOM      3  C29 LMB C1101      22.677   2.822   4.218  0.00  0.00    +0.000 C 
ENDROOT
BRANCH   1   4
ATOM      4  C16 LMB C1101      24.713   5.005   4.397  0.00  0.00    +0.000 C 
ATOM      5  C30 LMB C1101      24.343   5.080   5.875  0.00  0.00    +0.000 C 
BRANCH   4   6
ATOM      6  C17 LMB C1101      25.872   5.913   4.138  0.00  0.00    +0.000 C 
ATOM      7  O3  LMB C1101      26.583   5.706   3.167  0.00  0.00    +0.000 OA
BRANCH   6   8
ATOM      8  C18 LMB C1101      26.150   7.042   5.092  0.00  0.00    +0.000 C 
ATOM      9  C31 LMB C1101      27.668   7.134   5.265  0.00  0.00    +0.000 C 
BRANCH   8  10
ATOM     10  C19 LMB C1101      25.573   8.375   4.595  0.00  0.00    +0.000 C 
ATOM     11  O4  LMB C1101      26.651   9.271   4.294  0.00  0.00    +0.000 OA
BRANCH  10  12
ATOM     12  C20 LMB C1101      24.641   9.081   5.588  0.00  0.00    +0.000 C 
ATOM     13  C32 LMB C1101      23.283   8.391   5.651  0.00  0.00    +0.000 C 
BRANCH  12  14
ATOM     14  C21 LMB C1101      25.245   9.154   6.991  0.00  0.00    +0.000 C 
BRANCH  14  16
ATOM     15  C23 LMB C1101      24.590  10.109   9.176  0.00  0.00    +0.000 C 
ATOM     16  C22 LMB C1101      24.530  10.188   7.833  0.00  0.00    +0.000 C 
ATOM     17  C33 LMB C1101      23.797  11.305   7.142  0.00  0.00    +0.000 C 
BRANCH  15  19
ATOM     18  O6  LMB C1101      24.380  12.212  10.272  0.00  0.00    +0.000 OA
ATOM     19  C24 LMB C1101      23.907  11.077  10.066  0.00  0.00    +0.000 C 
ATOM     20  O5  LMB C1101      22.835  10.738  10.602  0.00  0.00    +0.000 OA
ENDBRANCH  15  19
ENDBRANCH  14  16
ENDBRANCH  12  14
ENDBRANCH  10  12
ENDBRANCH   8  10
ENDBRANCH   6   8
ENDBRANCH   4   6
ENDBRANCH   1   4
BRANCH   2  21
ATOM     21  C13 LMB C1101      24.662   1.225   3.745  0.00  0.00    +0.000 C 
ATOM     22  C12 LMB C1101      25.673   0.691   4.418  0.00  0.00    +0.000 C 
BRANCH  22  23
ATOM     23  C11 LMB C1101      26.140  -0.698   4.039  0.00  0.00    +0.000 C 
BRANCH  23  24
ATOM     24  C10 LMB C1101      26.911  -0.654   2.733  0.00  0.00    +0.000 C 
ATOM     25  C28 LMB C1101      27.637   0.680   2.588  0.00  0.00    +0.000 C 
BRANCH  24  26
ATOM     26  C9  LMB C1101      27.955  -1.748   2.708  0.00  0.00    +0.000 C 
ATOM     27  C8  LMB C1101      28.871  -1.979   3.675  0.00  0.00    +0.000 C 
BRANCH  27  28
ATOM     28  C26 LMB C1101      29.854  -3.128   3.513  0.00  0.00    +0.000 C 
ATOM     29  C27 LMB C1101      31.304  -2.689   3.522  0.00  0.00    +0.000 C 
ENDBRANCH  27  28
BRANCH  27  30
ATOM     30  C7  LMB C1101      28.975  -1.127   4.891  0.00  0.00    +0.000 C 
ATOM     31  C6  LMB C1101      30.054  -0.385   5.150  0.00  0.00    +0.000 C 
BRANCH  31  32
ATOM     32  C5  LMB C1101      30.079   0.487   6.383  0.00  0.00    +0.000 C 
ATOM     33  O2  LMB C1101      28.908   0.103   7.120  0.00  0.00    +0.000 OA
BRANCH  32  34
ATOM     34  C4  LMB C1101      30.049   2.002   6.165  0.00  0.00    +0.000 C 
ATOM     35  C25 LMB C1101      31.455   2.581   6.132  0.00  0.00    +0.000 C 
BRANCH  34  36
ATOM     36  C3  LMB C1101      29.300   2.370   4.871  0.00  0.00    +0.000 C 
BRANCH  36  37
ATOM     37  C2  LMB C1101      28.302   3.513   5.111  0.00  0.00    +0.000 C 
BRANCH  37  38
ATOM     38  C1  LMB C1101      27.830   3.629   6.537  0.00  0.00    +0.000 C 
ATOM     39  O1' LMB C1101      26.826   2.955   6.855  0.00  0.00    +0.000 OA
ATOM     40  O1  LMB C1101      28.431   4.399   7.320  0.00  0.00    +0.000 OA
ENDBRANCH  37  38
ENDBRANCH  36  37
ENDBRANCH  34  36
ENDBRANCH  32  34
ENDBRANCH  31  32
ENDBRANCH  27  30
ENDBRANCH  24  26
ENDBRANCH  23  24
ENDBRANCH  22  23
ENDBRANCH   2  21
TORSDOF 19
ENDMDL
MODEL 4
REMARK VINA RESULT:      -2.1      1.641      9.497
REMARK  Name = ligand_pdbs\LMB.pdb
REMARK  19 active torsions:
REMARK  status: ('A' for Active; 'I' for Inactive)
REMARK    1  A    between atoms: C24_2  and  C23_4
REMARK    2  A    between atoms: C22_5  and  C21_7
REMARK    3  A    between atoms: C21_7  and  C20_8
REMARK    4  A    between atoms: C20_8  and  C19_10
REMARK    5  A    between atoms: C19_10  and  C18_12
REMARK    6  A    between atoms: C18_12  and  C17_14
REMARK    7  A    between atoms: C17_14  and  C16_16
REMARK    8  A    between atoms: C16_16  and  C15_18
REMARK    9  A    between atoms: C14_19  and  C13_21
REMARK   10  A    between atoms: C12_22  and  C11_23
REMARK   11  A    between atoms: C11_23  and  C10_24
REMARK   12  A    between atoms: C10_24  and  C9_26
REMARK   13  A    between atoms: C8_27  and  C26_28
REMARK   14  A    between atoms: C8_27  and  C7_30
REMARK   15  A    between atoms: C6_31  and  C5_32
REMARK   16  A    between atoms: C5_32  and  C4_34
REMARK   17  A    between atoms: C4_34  and  C3_36
REMARK   18  A    between atoms: C3_36  and  C2_37
REMARK   19  A    between atoms: C2_37  and  C1_38
REMARK                            x       y       z     vdW  Elec       q    Type
REMARK                         _______ _______ _______ _____ _____    ______ ____
ROOT
ATOM      1  C15 LMB C1101      26.461   5.233   3.228  0.00  0.00    +0.000 C 
ATOM      2  C14 LMB C1101      25.653   4.188   3.484  0.00  0.00    +0.000 C 
ATOM      3  C29 LMB C1101      24.282   4.353   4.084  0.00  0.00    +0.000 C 
ENDROOT
BRANCH   1   4
ATOM      4  C16 LMB C1101      26.091   6.667   3.524  0.00  0.00    +0.000 C 
ATOM      5  C30 LMB C1101      24.597   6.818   3.253  0.00  0.00    +0.000 C 
BRANCH   4   6
ATOM      6  C17 LMB C1101      26.365   7.015   4.952  0.00  0.00    +0.000 C 
ATOM      7  O3  LMB C1101      26.784   6.150   5.705  0.00  0.00    +0.000 OA
BRANCH   6   8
ATOM      8  C18 LMB C1101      26.095   8.415   5.432  0.00  0.00    +0.000 C 
ATOM      9  C31 LMB C1101      26.012   9.317   4.198  0.00  0.00    +0.000 C 
BRANCH   8  10
ATOM     10  C19 LMB C1101      24.807   8.503   6.263  0.00  0.00    +0.000 C 
ATOM     11  O4  LMB C1101      23.678   8.313   5.401  0.00  0.00    +0.000 OA
BRANCH  10  12
ATOM     12  C20 LMB C1101      24.611   9.831   7.004  0.00  0.00    +0.000 C 
ATOM     13  C32 LMB C1101      23.135  10.213   7.062  0.00  0.00    +0.000 C 
BRANCH  12  14
ATOM     14  C21 LMB C1101      25.186   9.791   8.421  0.00  0.00    +0.000 C 
BRANCH  14  16
ATOM     15  C23 LMB C1101      24.039  10.237  10.565  0.00  0.00    +0.000 C 
ATOM     16  C22 LMB C1101      24.397  10.690   9.348  0.00  0.00    +0.000 C 
ATOM     17  C33 LMB C1101      24.066  12.086   8.897  0.00  0.00    +0.000 C 
BRANCH  15  19
ATOM     18  O6  LMB C1101      22.134  10.684  11.923  0.00  0.00    +0.000 OA
ATOM     19  C24 LMB C1101      23.256  11.053  11.523  0.00  0.00    +0.000 C 
ATOM     20  O5  LMB C1101      23.747  12.122  11.934  0.00  0.00    +0.000 OA
ENDBRANCH  15  19
ENDBRANCH  14  16
ENDBRANCH  12  14
ENDBRANCH  10  12
ENDBRANCH   8  10
ENDBRANCH   6   8
ENDBRANCH   4   6
ENDBRANCH   1   4
BRANCH   2  21
ATOM     21  C13 LMB C1101      26.185   2.848   3.172  0.00  0.00    +0.000 C 
ATOM     22  C12 LMB C1101      25.473   1.917   2.550  0.00  0.00    +0.000 C 
BRANCH  22  23
ATOM     23  C11 LMB C1101      26.108   0.564   2.307  0.00  0.00    +0.000 C 
BRANCH  23  24
ATOM     24  C10 LMB C1101      26.779   0.066   3.574  0.00  0.00    +0.000 C 
ATOM     25  C28 LMB C1101      25.736  -0.410   4.579  0.00  0.00    +0.000 C 
BRANCH  24  26
ATOM     26  C9  LMB C1101      27.679  -1.109   3.258  0.00  0.00    +0.000 C 
ATOM     27  C8  LMB C1101      28.865  -1.369   3.851  0.00  0.00    +0.000 C 
BRANCH  27  28
ATOM     28  C26 LMB C1101      29.655  -2.600   3.432  0.00  0.00    +0.000 C 
ATOM     29  C27 LMB C1101      31.127  -2.519   3.779  0.00  0.00    +0.000 C 
ENDBRANCH  27  28
BRANCH  27  30
ATOM     30  C7  LMB C1101      29.448  -0.474   4.888  0.00  0.00    +0.000 C 
ATOM     31  C6  LMB C1101      29.788   0.790   4.627  0.00  0.00    +0.000 C 
BRANCH  31  32
ATOM     32  C5  LMB C1101      30.340   1.656   5.734  0.00  0.00    +0.000 C 
ATOM     33  O2  LMB C1101      30.704   0.729   6.770  0.00  0.00    +0.000 OA
BRANCH  32  34
ATOM     34  C4  LMB C1101      29.401   2.711   6.327  0.00  0.00    +0.000 C 
ATOM     35  C25 LMB C1101      29.034   3.763   5.292  0.00  0.00    +0.000 C 
BRANCH  34  36
ATOM     36  C3  LMB C1101      28.124   2.071   6.900  0.00  0.00    +0.000 C 
BRANCH  36  37
ATOM     37  C2  LMB C1101      26.865   2.644   6.231  0.00  0.00    +0.000 C 
BRANCH  37  38
ATOM     38  C1  LMB C1101      25.894   3.282   7.190  0.00  0.00    +0.000 C 
ATOM     39  O1' LMB C1101      24.710   3.392   6.804  0.00  0.00    +0.000 OA
ATOM     40  O1  LMB C1101      26.309   3.693   8.298  0.00  0.00    +0.000 OA
ENDBRANCH  37  38
ENDBRANCH  36  37
ENDBRANCH  34  36
ENDBRANCH  32  34
ENDBRANCH  31  32
ENDBRANCH  27  30
ENDBRANCH  24  26
ENDBRANCH  23  24
ENDBRANCH  22  23
ENDBRANCH   2  21
TORSDOF 19
ENDMDL
MODEL 5
REMARK VINA RESULT:      -1.7      1.502      9.569
REMARK  Name = ligand_pdbs\LMB.pdb
REMARK  19 active torsions:
REMARK  status: ('A' for Active; 'I' for Inactive)
REMARK    1  A    between atoms: C24_2  and  C23_4
REMARK    2  A    between atoms: C22_5  and  C21_7
REMARK    3  A    between atoms: C21_7  and  C20_8
REMARK    4  A    between atoms: C20_8  and  C19_10
REMARK    5  A    between atoms: C19_10  and  C18_12
REMARK    6  A    between atoms: C18_12  and  C17_14
REMARK    7  A    between atoms: C17_14  and  C16_16
REMARK    8  A    between atoms: C16_16  and  C15_18
REMARK    9  A    between atoms: C14_19  and  C13_21
REMARK   10  A    between atoms: C12_22  and  C11_23
REMARK   11  A    between atoms: C11_23  and  C10_24
REMARK   12  A    between atoms: C10_24  and  C9_26
REMARK   13  A    between atoms: C8_27  and  C26_28
REMARK   14  A    between atoms: C8_27  and  C7_30
REMARK   15  A    between atoms: C6_31  and  C5_32
REMARK   16  A    between atoms: C5_32  and  C4_34
REMARK   17  A    between atoms: C4_34  and  C3_36
REMARK   18  A    between atoms: C3_36  and  C2_37
REMARK   19  A    between atoms: C2_37  and  C1_38
REMARK                            x       y       z     vdW  Elec       q    Type
REMARK                         _______ _______ _______ _____ _____    ______ ____
ROOT
ATOM      1  C15 LMB C1101      24.873   3.743   4.853  0.00  0.00    +0.000 C 
ATOM      2  C14 LMB C1101      23.908   3.057   4.213  0.00  0.00    +0.000 C 
ATOM      3  C29 LMB C1101      22.463   3.479   4.235  0.00  0.00    +0.000 C 
ENDROOT
BRANCH   1   4
ATOM      4  C16 LMB C1101      24.611   4.991   5.663  0.00  0.00    +0.000 C 
ATOM      5  C30 LMB C1101      25.495   4.923   6.905  0.00  0.00    +0.000 C 
BRANCH   4   6
ATOM      6  C17 LMB C1101      24.953   6.223   4.889  0.00  0.00    +0.000 C 
ATOM      7  O3  LMB C1101      24.758   6.240   3.683  0.00  0.00    +0.000 OA
BRANCH   6   8
ATOM      8  C18 LMB C1101      25.550   7.401   5.607  0.00  0.00    +0.000 C 
ATOM      9  C31 LMB C1101      26.927   7.666   4.991  0.00  0.00    +0.000 C 
BRANCH   8  10
ATOM     10  C19 LMB C1101      24.659   8.648   5.515  0.00  0.00    +0.000 C 
ATOM     11  O4  LMB C1101      25.294   9.617   4.670  0.00  0.00    +0.000 OA
BRANCH  10  12
ATOM     12  C20 LMB C1101      24.360   9.325   6.858  0.00  0.00    +0.000 C 
ATOM     13  C32 LMB C1101      25.597   9.342   7.750  0.00  0.00    +0.000 C 
BRANCH  12  14
ATOM     14  C21 LMB C1101      23.836  10.750   6.680  0.00  0.00    +0.000 C 
BRANCH  14  16
ATOM     15  C23 LMB C1101      23.727  10.743   9.151  0.00  0.00    +0.000 C 
ATOM     16  C22 LMB C1101      23.752  11.464   8.012  0.00  0.00    +0.000 C 
ATOM     17  C33 LMB C1101      23.737  12.968   8.031  0.00  0.00    +0.000 C 
BRANCH  15  19
ATOM     18  O6  LMB C1101      22.675  11.130  11.252  0.00  0.00    +0.000 OA
ATOM     19  C24 LMB C1101      23.634  11.369  10.490  0.00  0.00    +0.000 C 
ATOM     20  O5  LMB C1101      24.544  12.139  10.852  0.00  0.00    +0.000 OA
ENDBRANCH  15  19
ENDBRANCH  14  16
ENDBRANCH  12  14
ENDBRANCH  10  12
ENDBRANCH   8  10
ENDBRANCH   6   8
ENDBRANCH   4   6
ENDBRANCH   1   4
BRANCH   2  21
ATOM     21  C13 LMB C1101      24.327   1.836   3.500  0.00  0.00    +0.000 C 
ATOM     22  C12 LMB C1101      25.264   1.017   3.962  0.00  0.00    +0.000 C 
BRANCH  22  23
ATOM     23  C11 LMB C1101      25.639  -0.193   3.133  0.00  0.00    +0.000 C 
BRANCH  23  24
ATOM     24  C10 LMB C1101      26.917   0.077   2.360  0.00  0.00    +0.000 C 
ATOM     25  C28 LMB C1101      27.643   1.288   2.937  0.00  0.00    +0.000 C 
BRANCH  24  26
ATOM     26  C9  LMB C1101      27.850  -1.110   2.468  0.00  0.00    +0.000 C 
ATOM     27  C8  LMB C1101      28.552  -1.457   3.570  0.00  0.00    +0.000 C 
BRANCH  27  28
ATOM     28  C26 LMB C1101      29.444  -2.687   3.529  0.00  0.00    +0.000 C 
ATOM     29  C27 LMB C1101      30.923  -2.361   3.519  0.00  0.00    +0.000 C 
ENDBRANCH  27  28
BRANCH  27  30
ATOM     30  C7  LMB C1101      28.507  -0.658   4.825  0.00  0.00    +0.000 C 
ATOM     31  C6  LMB C1101      29.612  -0.194   5.413  0.00  0.00    +0.000 C 
BRANCH  31  32
ATOM     32  C5  LMB C1101      29.493   0.642   6.665  0.00  0.00    +0.000 C 
ATOM     33  O2  LMB C1101      28.108   0.547   7.033  0.00  0.00    +0.000 OA
BRANCH  32  34
ATOM     34  C4  LMB C1101      29.872   2.122   6.553  0.00  0.00    +0.000 C 
ATOM     35  C25 LMB C1101      30.938   2.338   5.491  0.00  0.00    +0.000 C 
BRANCH  34  36
ATOM     36  C3  LMB C1101      28.642   2.995   6.245  0.00  0.00    +0.000 C 
BRANCH  36  37
ATOM     37  C2  LMB C1101      28.432   3.147   4.730  0.00  0.00    +0.000 C 
BRANCH  37  38
ATOM     38  C1  LMB C1101      28.156   4.560   4.286  0.00  0.00    +0.000 C 
ATOM     39  O1' LMB C1101      28.333   5.463   5.133  0.00  0.00    +0.000 OA
ATOM     40  O1  LMB C1101      27.743   4.766   3.121  0.00  0.00    +0.000 OA
ENDBRANCH  37  38
ENDBRANCH  36  37
ENDBRANCH  34  36
ENDBRANCH  32  34
ENDBRANCH  31  32
ENDBRANCH  27  30
ENDBRANCH  24  26
ENDBRANCH  23  24
ENDBRANCH  22  23
ENDBRANCH   2  21
TORSDOF 19
ENDMDL
MODEL 6
REMARK VINA RESULT:      -1.6      1.975      4.209
REMARK  Name = ligand_pdbs\LMB.pdb
REMARK  19 active torsions:
REMARK  status: ('A' for Active; 'I' for Inactive)
REMARK    1  A    between atoms: C24_2  and  C23_4
REMARK    2  A    between atoms: C22_5  and  C21_7
REMARK    3  A    between atoms: C21_7  and  C20_8
REMARK    4  A    between atoms: C20_8  and  C19_10
REMARK    5  A    between atoms: C19_10  and  C18_12
REMARK    6  A    between atoms: C18_12  and  C17_14
REMARK    7  A    between atoms: C17_14  and  C16_16
REMARK    8  A    between atoms: C16_16  and  C15_18
REMARK    9  A    between atoms: C14_19  and  C13_21
REMARK   10  A    between atoms: C12_22  and  C11_23
REMARK   11  A    between atoms: C11_23  and  C10_24
REMARK   12  A    between atoms: C10_24  and  C9_26
REMARK   13  A    between atoms: C8_27  and  C26_28
REMARK   14  A    between atoms: C8_27  and  C7_30
REMARK   15  A    between atoms: C6_31  and  C5_32
REMARK   16  A    between atoms: C5_32  and  C4_34
REMARK   17  A    between atoms: C4_34  and  C3_36
REMARK   18  A    between atoms: C3_36  and  C2_37
REMARK   19  A    between atoms: C2_37  and  C1_38
REMARK                            x       y       z     vdW  Elec       q    Type
REMARK                         _______ _______ _______ _____ _____    ______ ____
ROOT
ATOM      1  C15 LMB C1101      28.768   2.372   5.613  0.00  0.00    +0.000 C 
ATOM      2  C14 LMB C1101      28.426   3.287   6.538  0.00  0.00    +0.000 C 
ATOM      3  C29 LMB C1101      29.408   3.834   7.539  0.00  0.00    +0.000 C 
ENDROOT
BRANCH   1   4
ATOM      4  C16 LMB C1101      30.157   1.791   5.488  0.00  0.00    +0.000 C 
ATOM      5  C30 LMB C1101      31.150   2.927   5.715  0.00  0.00    +0.000 C 
BRANCH   4   6
ATOM      6  C17 LMB C1101      30.393   0.725   6.509  0.00  0.00    +0.000 C 
ATOM      7  O3  LMB C1101      31.290   0.873   7.326  0.00  0.00    +0.000 OA
BRANCH   6   8
ATOM      8  C18 LMB C1101      29.540  -0.513   6.491  0.00  0.00    +0.000 C 
ATOM      9  C31 LMB C1101      28.479  -0.356   7.584  0.00  0.00    +0.000 C 
BRANCH   8  10
ATOM     10  C19 LMB C1101      28.887  -0.746   5.122  0.00  0.00    +0.000 C 
ATOM     11  O4  LMB C1101      28.003  -1.872   5.209  0.00  0.00    +0.000 OA
BRANCH  10  12
ATOM     12  C20 LMB C1101      29.871  -1.013   3.977  0.00  0.00    +0.000 C 
ATOM     13  C32 LMB C1101      29.938  -2.501   3.648  0.00  0.00    +0.000 C 
BRANCH  12  14
ATOM     14  C21 LMB C1101      29.516  -0.224   2.716  0.00  0.00    +0.000 C 
BRANCH  14  16
ATOM     15  C23 LMB C1101      27.251   0.762   2.840  0.00  0.00    +0.000 C 
ATOM     16  C22 LMB C1101      28.026  -0.271   2.454  0.00  0.00    +0.000 C 
ATOM     17  C33 LMB C1101      27.454  -1.459   1.731  0.00  0.00    +0.000 C 
BRANCH  15  19
ATOM     18  O6  LMB C1101      25.291   1.196   1.560  0.00  0.00    +0.000 OA
ATOM     19  C24 LMB C1101      25.785   0.783   2.628  0.00  0.00    +0.000 C 
ATOM     20  O5  LMB C1101      25.045   0.367   3.541  0.00  0.00    +0.000 OA
ENDBRANCH  15  19
ENDBRANCH  14  16
ENDBRANCH  12  14
ENDBRANCH  10  12
ENDBRANCH   8  10
ENDBRANCH   6   8
ENDBRANCH   4   6
ENDBRANCH   1   4
BRANCH   2  21
ATOM     21  C13 LMB C1101      27.016   3.721   6.549  0.00  0.00    +0.000 C 
ATOM     22  C12 LMB C1101      26.005   2.891   6.325  0.00  0.00    +0.000 C 
BRANCH  22  23
ATOM     23  C11 LMB C1101      24.598   3.448   6.330  0.00  0.00    +0.000 C 
BRANCH  23  24
ATOM     24  C10 LMB C1101      24.035   3.464   4.920  0.00  0.00    +0.000 C 
ATOM     25  C28 LMB C1101      23.094   4.649   4.735  0.00  0.00    +0.000 C 
BRANCH  24  26
ATOM     26  C9  LMB C1101      25.156   3.609   3.914  0.00  0.00    +0.000 C 
ATOM     27  C8  LMB C1101      25.826   4.752   3.647  0.00  0.00    +0.000 C 
BRANCH  27  28
ATOM     28  C26 LMB C1101      26.940   4.740   2.613  0.00  0.00    +0.000 C 
ATOM     29  C27 LMB C1101      28.321   4.916   3.211  0.00  0.00    +0.000 C 
ENDBRANCH  27  28
BRANCH  27  30
ATOM     30  C7  LMB C1101      25.493   6.042   4.312  0.00  0.00    +0.000 C 
ATOM     31  C6  LMB C1101      25.442   7.196   3.643  0.00  0.00    +0.000 C 
BRANCH  31  32
ATOM     32  C5  LMB C1101      25.061   8.462   4.371  0.00  0.00    +0.000 C 
ATOM     33  O2  LMB C1101      26.072   9.412   3.997  0.00  0.00    +0.000 OA
BRANCH  32  34
ATOM     34  C4  LMB C1101      24.993   8.394   5.900  0.00  0.00    +0.000 C 
ATOM     35  C25 LMB C1101      26.381   8.262   6.506  0.00  0.00    +0.000 C 
BRANCH  34  36
ATOM     36  C3  LMB C1101      24.280   9.626   6.486  0.00  0.00    +0.000 C 
BRANCH  36  37
ATOM     37  C2  LMB C1101      24.717   9.885   7.936  0.00  0.00    +0.000 C 
BRANCH  37  38
ATOM     38  C1  LMB C1101      23.949  10.984   8.624  0.00  0.00    +0.000 C 
ATOM     39  O1' LMB C1101      23.450  10.711   9.737  0.00  0.00    +0.000 OA
ATOM     40  O1  LMB C1101      23.821  12.091   8.053  0.00  0.00    +0.000 OA
ENDBRANCH  37  38
ENDBRANCH  36  37
ENDBRANCH  34  36
ENDBRANCH  32  34
ENDBRANCH  31  32
ENDBRANCH  27  30
ENDBRANCH  24  26
ENDBRANCH  23  24
ENDBRANCH  22  23
ENDBRANCH   2  21
TORSDOF 19
ENDMDL
MODEL 7
REMARK VINA RESULT:      -1.5      1.712      9.865
REMARK  Name = ligand_pdbs\LMB.pdb
REMARK  19 active torsions:
REMARK  status: ('A' for Active; 'I' for Inactive)
REMARK    1  A    between atoms: C24_2  and  C23_4
REMARK    2  A    between atoms: C22_5  and  C21_7
REMARK    3  A    between atoms: C21_7  and  C20_8
REMARK    4  A    between atoms: C20_8  and  C19_10
REMARK    5  A    between atoms: C19_10  and  C18_12
REMARK    6  A    between atoms: C18_12  and  C17_14
REMARK    7  A    between atoms: C17_14  and  C16_16
REMARK    8  A    between atoms: C16_16  and  C15_18
REMARK    9  A    between atoms: C14_19  and  C13_21
REMARK   10  A    between atoms: C12_22  and  C11_23
REMARK   11  A    between atoms: C11_23  and  C10_24
REMARK   12  A    between atoms: C10_24  and  C9_26
REMARK   13  A    between atoms: C8_27  and  C26_28
REMARK   14  A    between atoms: C8_27  and  C7_30
REMARK   15  A    between atoms: C6_31  and  C5_32
REMARK   16  A    between atoms: C5_32  and  C4_34
REMARK   17  A    between atoms: C4_34  and  C3_36
REMARK   18  A    between atoms: C3_36  and  C2_37
REMARK   19  A    between atoms: C2_37  and  C1_38
REMARK                            x       y       z     vdW  Elec       q    Type
REMARK                         _______ _______ _______ _____ _____    ______ ____
ROOT
ATOM      1  C15 LMB C1101      26.109   4.880   4.282  0.00  0.00    +0.000 C 
ATOM      2  C14 LMB C1101      24.895   4.300   4.305  0.00  0.00    +0.000 C 
ATOM      3  C29 LMB C1101      23.757   4.836   5.131  0.00  0.00    +0.000 C 
ENDROOT
BRANCH   1   4
ATOM      4  C16 LMB C1101      26.461   6.111   5.084  0.00  0.00    +0.000 C 
ATOM      5  C30 LMB C1101      27.982   6.200   5.142  0.00  0.00    +0.000 C 
BRANCH   4   6
ATOM      6  C17 LMB C1101      25.923   7.349   4.441  0.00  0.00    +0.000 C 
ATOM      7  O3  LMB C1101      25.553   7.303   3.278  0.00  0.00    +0.000 OA
BRANCH   6   8
ATOM      8  C18 LMB C1101      25.876   8.627   5.233  0.00  0.00    +0.000 C 
ATOM      9  C31 LMB C1101      25.751   9.781   4.235  0.00  0.00    +0.000 C 
BRANCH   8  10
ATOM     10  C19 LMB C1101      24.715   8.643   6.238  0.00  0.00    +0.000 C 
ATOM     11  O4  LMB C1101      23.487   8.394   5.541  0.00  0.00    +0.000 OA
BRANCH  10  12
ATOM     12  C20 LMB C1101      24.555   9.956   7.013  0.00  0.00    +0.000 C 
ATOM     13  C32 LMB C1101      23.100  10.416   7.016  0.00  0.00    +0.000 C 
BRANCH  12  14
ATOM     14  C21 LMB C1101      25.059   9.841   8.452  0.00  0.00    +0.000 C 
BRANCH  14  16
ATOM     15  C23 LMB C1101      23.882  10.366  10.562  0.00  0.00    +0.000 C 
ATOM     16  C22 LMB C1101      24.317  10.796   9.361  0.00  0.00    +0.000 C 
ATOM     17  C33 LMB C1101      24.116  12.217   8.912  0.00  0.00    +0.000 C 
BRANCH  15  19
ATOM     18  O6  LMB C1101      23.298  12.476  11.499  0.00  0.00    +0.000 OA
ATOM     19  C24 LMB C1101      23.139  11.239  11.501  0.00  0.00    +0.000 C 
ATOM     20  O5  LMB C1101      22.336  10.712  12.295  0.00  0.00    +0.000 OA
ENDBRANCH  15  19
ENDBRANCH  14  16
ENDBRANCH  12  14
ENDBRANCH  10  12
ENDBRANCH   8  10
ENDBRANCH   6   8
ENDBRANCH   4   6
ENDBRANCH   1   4
BRANCH   2  21
ATOM     21  C13 LMB C1101      24.731   3.079   3.494  0.00  0.00    +0.000 C 
ATOM     22  C12 LMB C1101      24.537   1.880   4.028  0.00  0.00    +0.000 C 
BRANCH  22  23
ATOM     23  C11 LMB C1101      24.411   0.688   3.103  0.00  0.00    +0.000 C 
BRANCH  23  24
ATOM     24  C10 LMB C1101      25.738   0.414   2.418  0.00  0.00    +0.000 C 
ATOM     25  C28 LMB C1101      26.726   1.541   2.699  0.00  0.00    +0.000 C 
BRANCH  24  26
ATOM     26  C9  LMB C1101      26.342  -0.867   2.949  0.00  0.00    +0.000 C 
ATOM     27  C8  LMB C1101      26.857  -1.036   4.188  0.00  0.00    +0.000 C 
BRANCH  27  28
ATOM     28  C26 LMB C1101      27.422  -2.391   4.582  0.00  0.00    +0.000 C 
ATOM     29  C27 LMB C1101      28.736  -2.718   3.902  0.00  0.00    +0.000 C 
ENDBRANCH  27  28
BRANCH  27  30
ATOM     30  C7  LMB C1101      26.917   0.071   5.181  0.00  0.00    +0.000 C 
ATOM     31  C6  LMB C1101      28.059   0.689   5.489  0.00  0.00    +0.000 C 
BRANCH  31  32
ATOM     32  C5  LMB C1101      28.044   1.831   6.477  0.00  0.00    +0.000 C 
ATOM     33  O2  LMB C1101      26.671   2.250   6.524  0.00  0.00    +0.000 OA
BRANCH  32  34
ATOM     34  C4  LMB C1101      28.918   3.046   6.152  0.00  0.00    +0.000 C 
ATOM     35  C25 LMB C1101      29.303   3.800   7.416  0.00  0.00    +0.000 C 
BRANCH  34  36
ATOM     36  C3  LMB C1101      30.186   2.637   5.380  0.00  0.00    +0.000 C 
BRANCH  36  37
ATOM     37  C2  LMB C1101      31.386   2.472   6.325  0.00  0.00    +0.000 C 
BRANCH  37  38
ATOM     38  C1  LMB C1101      31.707   1.040   6.667  0.00  0.00    +0.000 C 
ATOM     39  O1' LMB C1101      30.764   0.334   7.083  0.00  0.00    +0.000 OA
ATOM     40  O1  LMB C1101      32.886   0.633   6.549  0.00  0.00    +0.000 OA
ENDBRANCH  37  38
ENDBRANCH  36  37
ENDBRANCH  34  36
ENDBRANCH  32  34
ENDBRANCH  31  32
ENDBRANCH  27  30
ENDBRANCH  24  26
ENDBRANCH  23  24
ENDBRANCH  22  23
ENDBRANCH   2  21
TORSDOF 19
ENDMDL
MODEL 8
REMARK VINA RESULT:      -1.2      3.175      5.137
REMARK  Name = ligand_pdbs\LMB.pdb
REMARK  19 active torsions:
REMARK  status: ('A' for Active; 'I' for Inactive)
REMARK    1  A    between atoms: C24_2  and  C23_4
REMARK    2  A    between atoms: C22_5  and  C21_7
REMARK    3  A    between atoms: C21_7  and  C20_8
REMARK    4  A    between atoms: C20_8  and  C19_10
REMARK    5  A    between atoms: C19_10  and  C18_12
REMARK    6  A    between atoms: C18_12  and  C17_14
REMARK    7  A    between atoms: C17_14  and  C16_16
REMARK    8  A    between atoms: C16_16  and  C15_18
REMARK    9  A    between atoms: C14_19  and  C13_21
REMARK   10  A    between atoms: C12_22  and  C11_23
REMARK   11  A    between atoms: C11_23  and  C10_24
REMARK   12  A    between atoms: C10_24  and  C9_26
REMARK   13  A    between atoms: C8_27  and  C26_28
REMARK   14  A    between atoms: C8_27  and  C7_30
REMARK   15  A    between atoms: C6_31  and  C5_32
REMARK   16  A    between atoms: C5_32  and  C4_34
REMARK   17  A    between atoms: C4_34  and  C3_36
REMARK   18  A    between atoms: C3_36  and  C2_37
REMARK   19  A    between atoms: C2_37  and  C1_38
REMARK                            x       y       z     vdW  Elec       q    Type
REMARK                         _______ _______ _______ _____ _____    ______ ____
ROOT
ATOM      1  C15 LMB C1101      27.671   1.159   2.694  0.00  0.00    +0.000 C 
ATOM      2  C14 LMB C1101      26.556   1.907   2.593  0.00  0.00    +0.000 C 
ATOM      3  C29 LMB C1101      25.219   1.322   2.225  0.00  0.00    +0.000 C 
ENDROOT
BRANCH   1   4
ATOM      4  C16 LMB C1101      27.703  -0.329   2.440  0.00  0.00    +0.000 C 
ATOM      5  C30 LMB C1101      27.525  -0.541   0.940  0.00  0.00    +0.000 C 
BRANCH   4   6
ATOM      6  C17 LMB C1101      29.006  -0.925   2.866  0.00  0.00    +0.000 C 
ATOM      7  O3  LMB C1101      30.038  -0.304   2.663  0.00  0.00    +0.000 OA
BRANCH   6   8
ATOM      8  C18 LMB C1101      29.018  -2.284   3.511  0.00  0.00    +0.000 C 
ATOM      9  C31 LMB C1101      30.470  -2.610   3.869  0.00  0.00    +0.000 C 
BRANCH   8  10
ATOM     10  C19 LMB C1101      28.120  -2.343   4.754  0.00  0.00    +0.000 C 
ATOM     11  O4  LMB C1101      26.884  -2.983   4.411  0.00  0.00    +0.000 OA
BRANCH  10  12
ATOM     12  C20 LMB C1101      27.784  -0.979   5.370  0.00  0.00    +0.000 C 
ATOM     13  C32 LMB C1101      26.278  -0.743   5.390  0.00  0.00    +0.000 C 
BRANCH  12  14
ATOM     14  C21 LMB C1101      28.345  -0.833   6.785  0.00  0.00    +0.000 C 
BRANCH  14  16
ATOM     15  C23 LMB C1101      29.651   1.037   5.830  0.00  0.00    +0.000 C 
ATOM     16  C22 LMB C1101      29.527   0.112   6.802  0.00  0.00    +0.000 C 
ATOM     17  C33 LMB C1101      30.517   0.017   7.930  0.00  0.00    +0.000 C 
BRANCH  15  19
ATOM     18  O6  LMB C1101      30.609   3.191   5.494  0.00  0.00    +0.000 OA
ATOM     19  C24 LMB C1101      30.786   1.988   5.772  0.00  0.00    +0.000 C 
ATOM     20  O5  LMB C1101      31.931   1.565   6.019  0.00  0.00    +0.000 OA
ENDBRANCH  15  19
ENDBRANCH  14  16
ENDBRANCH  12  14
ENDBRANCH  10  12
ENDBRANCH   8  10
ENDBRANCH   6   8
ENDBRANCH   4   6
ENDBRANCH   1   4
BRANCH   2  21
ATOM     21  C13 LMB C1101      26.707   3.354   2.835  0.00  0.00    +0.000 C 
ATOM     22  C12 LMB C1101      27.729   3.870   3.506  0.00  0.00    +0.000 C 
BRANCH  22  23
ATOM     23  C11 LMB C1101      27.768   5.368   3.722  0.00  0.00    +0.000 C 
BRANCH  23  24
ATOM     24  C10 LMB C1101      27.253   5.711   5.108  0.00  0.00    +0.000 C 
ATOM     25  C28 LMB C1101      28.378   5.617   6.134  0.00  0.00    +0.000 C 
BRANCH  24  26
ATOM     26  C9  LMB C1101      26.731   7.131   5.132  0.00  0.00    +0.000 C 
ATOM     27  C8  LMB C1101      25.426   7.486   5.109  0.00  0.00    +0.000 C 
BRANCH  27  28
ATOM     28  C26 LMB C1101      25.054   8.959   5.149  0.00  0.00    +0.000 C 
ATOM     29  C27 LMB C1101      24.526   9.413   6.494  0.00  0.00    +0.000 C 
ENDBRANCH  27  28
BRANCH  27  30
ATOM     30  C7  LMB C1101      24.331   6.482   5.018  0.00  0.00    +0.000 C 
ATOM     31  C6  LMB C1101      24.370   5.463   4.157  0.00  0.00    +0.000 C 
BRANCH  31  32
ATOM     32  C5  LMB C1101      23.243   4.458   4.141  0.00  0.00    +0.000 C 
ATOM     33  O2  LMB C1101      22.076   5.219   4.493  0.00  0.00    +0.000 OA
BRANCH  32  34
ATOM     34  C4  LMB C1101      23.358   3.266   5.096  0.00  0.00    +0.000 C 
ATOM     35  C25 LMB C1101      23.867   2.029   4.373  0.00  0.00    +0.000 C 
BRANCH  34  36
ATOM     36  C3  LMB C1101      24.275   3.589   6.290  0.00  0.00    +0.000 C 
BRANCH  36  37
ATOM     37  C2  LMB C1101      25.560   2.748   6.249  0.00  0.00    +0.000 C 
BRANCH  37  38
ATOM     38  C1  LMB C1101      26.550   3.083   7.334  0.00  0.00    +0.000 C 
ATOM     39  O1' LMB C1101      26.096   3.628   8.364  0.00  0.00    +0.000 OA
ATOM     40  O1  LMB C1101      27.764   2.832   7.154  0.00  0.00    +0.000 OA
ENDBRANCH  37  38
ENDBRANCH  36  37
ENDBRANCH  34  36
ENDBRANCH  32  34
ENDBRANCH  31  32
ENDBRANCH  27  30
ENDBRANCH  24  26
ENDBRANCH  23  24
ENDBRANCH  22  23
ENDBRANCH   2  21
TORSDOF 19
ENDMDL
MODEL 9
REMARK VINA RESULT:      -0.9      1.577      2.373
REMARK  Name = ligand_pdbs\LMB.pdb
REMARK  19 active torsions:
REMARK  status: ('A' for Active; 'I' for Inactive)
REMARK    1  A    between atoms: C24_2  and  C23_4
REMARK    2  A    between atoms: C22_5  and  C21_7
REMARK    3  A    between atoms: C21_7  and  C20_8
REMARK    4  A    between atoms: C20_8  and  C19_10
REMARK    5  A    between atoms: C19_10  and  C18_12
REMARK    6  A    between atoms: C18_12  and  C17_14
REMARK    7  A    between atoms: C17_14  and  C16_16
REMARK    8  A    between atoms: C16_16  and  C15_18
REMARK    9  A    between atoms: C14_19  and  C13_21
REMARK   10  A    between atoms: C12_22  and  C11_23
REMARK   11  A    between atoms: C11_23  and  C10_24
REMARK   12  A    between atoms: C10_24  and  C9_26
REMARK   13  A    between atoms: C8_27  and  C26_28
REMARK   14  A    between atoms: C8_27  and  C7_30
REMARK   15  A    between atoms: C6_31  and  C5_32
REMARK   16  A    between atoms: C5_32  and  C4_34
REMARK   17  A    between atoms: C4_34  and  C3_36
REMARK   18  A    between atoms: C3_36  and  C2_37
REMARK   19  A    between atoms: C2_37  and  C1_38
REMARK                            x       y       z     vdW  Elec       q    Type
REMARK                         _______ _______ _______ _____ _____    ______ ____
ROOT
ATOM      1  C15 LMB C1101      25.229   1.886   4.271  0.00  0.00    +0.000 C 
ATOM      2  C14 LMB C1101      24.132   2.642   4.461  0.00  0.00    +0.000 C 
ATOM      3  C29 LMB C1101      22.790   2.282   3.883  0.00  0.00    +0.000 C 
ENDROOT
BRANCH   1   4
ATOM      4  C16 LMB C1101      25.235   0.615   3.456  0.00  0.00    +0.000 C 
ATOM      5  C30 LMB C1101      25.762   0.964   2.067  0.00  0.00    +0.000 C 
BRANCH   4   6
ATOM      6  C17 LMB C1101      26.125  -0.419   4.069  0.00  0.00    +0.000 C 
ATOM      7  O3  LMB C1101      26.175  -0.514   5.286  0.00  0.00    +0.000 OA
BRANCH   6   8
ATOM      8  C18 LMB C1101      26.955  -1.298   3.175  0.00  0.00    +0.000 C 
ATOM      9  C31 LMB C1101      27.710  -0.386   2.205  0.00  0.00    +0.000 C 
BRANCH   8  10
ATOM     10  C19 LMB C1101      27.929  -2.179   3.971  0.00  0.00    +0.000 C 
ATOM     11  O4  LMB C1101      27.326  -2.534   5.222  0.00  0.00    +0.000 OA
BRANCH  10  12
ATOM     12  C20 LMB C1101      29.283  -1.527   4.273  0.00  0.00    +0.000 C 
ATOM     13  C32 LMB C1101      30.407  -2.221   3.512  0.00  0.00    +0.000 C 
BRANCH  12  14
ATOM     14  C21 LMB C1101      29.288  -0.032   3.947  0.00  0.00    +0.000 C 
BRANCH  14  16
ATOM     15  C23 LMB C1101      28.620   2.020   5.153  0.00  0.00    +0.000 C 
ATOM     16  C22 LMB C1101      29.180   0.796   5.209  0.00  0.00    +0.000 C 
ATOM     17  C33 LMB C1101      29.670   0.211   6.505  0.00  0.00    +0.000 C 
BRANCH  15  19
ATOM     18  O6  LMB C1101      27.382   3.097   6.879  0.00  0.00    +0.000 OA
ATOM     19  C24 LMB C1101      28.490   2.893   6.343  0.00  0.00    +0.000 C 
ATOM     20  O5  LMB C1101      29.518   3.418   6.812  0.00  0.00    +0.000 OA
ENDBRANCH  15  19
ENDBRANCH  14  16
ENDBRANCH  12  14
ENDBRANCH  10  12
ENDBRANCH   8  10
ENDBRANCH   6   8
ENDBRANCH   4   6
ENDBRANCH   1   4
BRANCH   2  21
ATOM     21  C13 LMB C1101      24.308   3.876   5.250  0.00  0.00    +0.000 C 
ATOM     22  C12 LMB C1101      25.237   4.782   4.973  0.00  0.00    +0.000 C 
BRANCH  22  23
ATOM     23  C11 LMB C1101      25.350   5.998   5.867  0.00  0.00    +0.000 C 
BRANCH  23  24
ATOM     24  C10 LMB C1101      26.563   6.824   5.480  0.00  0.00    +0.000 C 
ATOM     25  C28 LMB C1101      27.562   5.972   4.705  0.00  0.00    +0.000 C 
BRANCH  24  26
ATOM     26  C9  LMB C1101      26.147   7.970   4.584  0.00  0.00    +0.000 C 
ATOM     27  C8  LMB C1101      25.616   9.140   5.004  0.00  0.00    +0.000 C 
BRANCH  27  28
ATOM     28  C26 LMB C1101      25.256  10.206   3.981  0.00  0.00    +0.000 C 
ATOM     29  C27 LMB C1101      26.439  10.681   3.162  0.00  0.00    +0.000 C 
ENDBRANCH  27  28
BRANCH  27  30
ATOM     30  C7  LMB C1101      25.341   9.418   6.440  0.00  0.00    +0.000 C 
ATOM     31  C6  LMB C1101      24.317  10.176   6.835  0.00  0.00    +0.000 C 
BRANCH  31  32
ATOM     32  C5  LMB C1101      24.072  10.387   8.310  0.00  0.00    +0.000 C 
ATOM     33  O2  LMB C1101      22.841   9.695   8.575  0.00  0.00    +0.000 OA
BRANCH  32  34
ATOM     34  C4  LMB C1101      23.936  11.834   8.794  0.00  0.00    +0.000 C 
ATOM     35  C25 LMB C1101      23.847  12.799   7.622  0.00  0.00    +0.000 C 
BRANCH  34  36
ATOM     36  C3  LMB C1101      22.711  12.008   9.711  0.00  0.00    +0.000 C 
BRANCH  36  37
ATOM     37  C2  LMB C1101      23.033  12.924  10.902  0.00  0.00    +0.000 C 
BRANCH  37  38
ATOM     38  C1  LMB C1101      23.788  12.244  12.014  0.00  0.00    +0.000 C 
ATOM     39  O1' LMB C1101      23.347  11.142  12.405  0.00  0.00    +0.000 OA
ATOM     40  O1  LMB C1101      24.790  12.812  12.509  0.00  0.00    +0.000 OA
ENDBRANCH  37  38
ENDBRANCH  36  37
ENDBRANCH  34  36
ENDBRANCH  32  34
ENDBRANCH  31  32
ENDBRANCH  27  30
ENDBRANCH  24  26
ENDBRANCH  23  24
ENDBRANCH  22  23
ENDBRANCH   2  21
TORSDOF 19
ENDMDL
