MODEL 1
REMARK VINA RESULT:       1.1      0.000      0.000
REMARK  Name = ligand_pdbs\M9R.pdb
REMARK  6 active torsions:
REMARK  status: ('A' for Active; 'I' for Inactive)
REMARK    1  A    between atoms: C07_2  and  C05_5
REMARK    2  A    between atoms: C01_10  and  N08_11
REMARK    3  A    between atoms: N11_14  and  C14_17
REMARK    4  A    between atoms: C17_20  and  C20_21
REMARK    5  A    between atoms: C15_25  and  N23_26
REMARK    6  A    between atoms: C24_27  and  C26_29
REMARK                            x       y       z     vdW  Elec       q    Type
REMARK                         _______ _______ _______ _____ _____    ______ ____
ROOT
ATOM      1  C14 M9R C1110      26.446   2.058   3.836  0.00  0.00    +0.000 A 
ATOM      2  C19 M9R C1110      26.641   1.529   2.578  0.00  0.00    +0.000 A 
ATOM      3  C18 M9R C1110      26.838   0.178   2.382  0.00  0.00    +0.000 A 
ATOM      4  C17 M9R C1110      26.846  -0.661   3.469  0.00  0.00    +0.000 A 
ATOM      5  C16 M9R C1110      26.664  -0.139   4.736  0.00  0.00    +0.000 A 
ATOM      6  C15 M9R C1110      26.466   1.214   4.942  0.00  0.00    +0.000 A 
ENDROOT
BRANCH   1  10
ATOM      7  N08 M9R C1110      25.935   6.126   4.296  0.00  0.00    +0.000 N 
ATOM      8  C13 M9R C1110      25.349   5.160   5.186  0.00  0.00    +0.000 C 
ATOM      9  C12 M9R C1110      24.995   3.983   4.302  0.00  0.00    +0.000 C 
ATOM     10  N11 M9R C1110      26.271   3.442   3.876  0.00  0.00    +0.000 N 
ATOM     11  C10 M9R C1110      27.361   4.341   3.571  0.00  0.00    +0.000 C 
ATOM     12  C09 M9R C1110      26.743   5.671   3.189  0.00  0.00    +0.000 C 
BRANCH   7  18
ATOM     13  C05 M9R C1110      24.903   9.318   5.776  0.00  0.00    +0.000 A 
ATOM     14  C04 M9R C1110      25.297  10.193   4.792  0.00  0.00    +0.000 A 
ATOM     15  C03 M9R C1110      25.912   9.713   3.656  0.00  0.00    +0.000 A 
ATOM     16  C02 M9R C1110      26.116   8.358   3.511  0.00  0.00    +0.000 A 
ATOM     17  C06 M9R C1110      25.100   7.958   5.630  0.00  0.00    +0.000 A 
ATOM     18  C01 M9R C1110      25.716   7.480   4.488  0.00  0.00    +0.000 A 
BRANCH  13  20
ATOM     19  F35 M9R C1110      24.923   9.593   8.045  0.00  0.00    +0.000 F 
ATOM     20  C07 M9R C1110      24.263   9.882   6.985  0.00  0.00    +0.000 C 
ATOM     21  F33 M9R C1110      23.064   9.460   7.068  0.00  0.00    +0.000 F 
ATOM     22  F34 M9R C1110      24.137  11.160   6.923  0.00  0.00    +0.000 F 
ENDBRANCH  13  20
ENDBRANCH   7  18
ENDBRANCH   1  10
BRANCH   4  23
ATOM     23  C20 M9R C1110      27.074  -2.126   3.267  0.00  0.00    +0.000 C 
ATOM     24  O22 M9R C1110      26.379  -2.952   3.875  0.00  0.00    +0.000 OA
ATOM     25  O21 M9R C1110      27.979  -2.495   2.506  0.00  0.00    +0.000 OA
ENDBRANCH   4  23
BRANCH   6  26
ATOM     26  N23 M9R C1110      26.288   1.628   6.217  0.00  0.00    +0.000 NA
ATOM     27  C24 M9R C1110      27.216   2.046   7.081  0.00  0.00    +0.000 C 
ATOM     28  O25 M9R C1110      26.892   2.518   8.160  0.00  0.00    +0.000 OA
BRANCH  27  29
ATOM     29  C26 M9R C1110      28.693   1.929   6.806  0.00  0.00    +0.000 A 
ATOM     30  C31 M9R C1110      29.316   0.713   7.037  0.00  0.00    +0.000 A 
ATOM     31  C30 M9R C1110      30.670   0.557   6.781  0.00  0.00    +0.000 A 
ATOM     32  C29 M9R C1110      31.408   1.625   6.291  0.00  0.00    +0.000 A 
ATOM     33  F32 M9R C1110      32.716   1.499   6.046  0.00  0.00    +0.000 F 
ATOM     34  C28 M9R C1110      30.803   2.840   6.057  0.00  0.00    +0.000 A 
ATOM     35  C27 M9R C1110      29.457   2.975   6.314  0.00  0.00    +0.000 A 
ENDBRANCH  27  29
ENDBRANCH   6  26
TORSDOF 6
ENDMDL
MODEL 2
REMARK VINA RESULT:       1.9      3.948      8.430
REMARK  Name = ligand_pdbs\M9R.pdb
REMARK  6 active torsions:
REMARK  status: ('A' for Active; 'I' for Inactive)
REMARK    1  A    between atoms: C07_2  and  C05_5
REMARK    2  A    between atoms: C01_10  and  N08_11
REMARK    3  A    between atoms: N11_14  and  C14_17
REMARK    4  A    between atoms: C17_20  and  C20_21
REMARK    5  A    between atoms: C15_25  and  N23_26
REMARK    6  A    between atoms: C24_27  and  C26_29
REMARK                            x       y       z     vdW  Elec       q    Type
REMARK                         _______ _______ _______ _____ _____    ______ ____
ROOT
ATOM      1  C14 M9R C1110      25.989   4.579   4.348  0.00  0.00    +0.000 A 
ATOM      2  C19 M9R C1110      26.298   5.370   3.263  0.00  0.00    +0.000 A 
ATOM      3  C18 M9R C1110      26.152   6.741   3.301  0.00  0.00    +0.000 A 
ATOM      4  C17 M9R C1110      25.682   7.332   4.449  0.00  0.00    +0.000 A 
ATOM      5  C16 M9R C1110      25.359   6.546   5.538  0.00  0.00    +0.000 A 
ATOM      6  C15 M9R C1110      25.501   5.171   5.509  0.00  0.00    +0.000 A 
ENDROOT
BRANCH   1  10
ATOM      7  N08 M9R C1110      26.802   0.548   4.009  0.00  0.00    +0.000 N 
ATOM      8  C13 M9R C1110      27.828   1.537   4.202  0.00  0.00    +0.000 C 
ATOM      9  C12 M9R C1110      27.348   2.749   3.432  0.00  0.00    +0.000 C 
ATOM     10  N11 M9R C1110      26.179   3.209   4.156  0.00  0.00    +0.000 N 
ATOM     11  C10 M9R C1110      25.269   2.243   4.729  0.00  0.00    +0.000 C 
ATOM     12  C09 M9R C1110      25.422   0.965   3.931  0.00  0.00    +0.000 C 
BRANCH   7  18
ATOM     13  C05 M9R C1110      28.723  -2.545   3.574  0.00  0.00    +0.000 A 
ATOM     14  C04 M9R C1110      27.716  -3.478   3.625  0.00  0.00    +0.000 A 
ATOM     15  C03 M9R C1110      26.414  -3.070   3.817  0.00  0.00    +0.000 A 
ATOM     16  C02 M9R C1110      26.132  -1.727   3.943  0.00  0.00    +0.000 A 
ATOM     17  C06 M9R C1110      28.442  -1.197   3.693  0.00  0.00    +0.000 A 
ATOM     18  C01 M9R C1110      27.134  -0.791   3.884  0.00  0.00    +0.000 A 
BRANCH  13  20
ATOM     19  F35 M9R C1110      30.964  -2.225   3.889  0.00  0.00    +0.000 F 
ATOM     20  C07 M9R C1110      30.107  -3.033   3.385  0.00  0.00    +0.000 C 
ATOM     21  F33 M9R C1110      30.329  -3.213   2.143  0.00  0.00    +0.000 F 
ATOM     22  F34 M9R C1110      30.293  -4.195   3.903  0.00  0.00    +0.000 F 
ENDBRANCH  13  20
ENDBRANCH   7  18
ENDBRANCH   1  10
BRANCH   4  23
ATOM     23  C20 M9R C1110      25.507   8.817   4.493  0.00  0.00    +0.000 C 
ATOM     24  O22 M9R C1110      25.993   9.526   3.601  0.00  0.00    +0.000 OA
ATOM     25  O21 M9R C1110      24.894   9.324   5.443  0.00  0.00    +0.000 OA
ENDBRANCH   4  23
BRANCH   6  26
ATOM     26  N23 M9R C1110      25.168   4.488   6.629  0.00  0.00    +0.000 NA
ATOM     27  C24 M9R C1110      25.964   3.748   7.405  0.00  0.00    +0.000 C 
ATOM     28  O25 M9R C1110      25.552   3.296   8.462  0.00  0.00    +0.000 OA
BRANCH  27  29
ATOM     29  C26 M9R C1110      27.376   3.394   7.018  0.00  0.00    +0.000 A 
ATOM     30  C31 M9R C1110      27.761   2.064   7.057  0.00  0.00    +0.000 A 
ATOM     31  C30 M9R C1110      29.046   1.693   6.691  0.00  0.00    +0.000 A 
ATOM     32  C29 M9R C1110      29.955   2.660   6.285  0.00  0.00    +0.000 A 
ATOM     33  F32 M9R C1110      31.202   2.325   5.938  0.00  0.00    +0.000 F 
ATOM     34  C28 M9R C1110      29.588   3.986   6.242  0.00  0.00    +0.000 A 
ATOM     35  C27 M9R C1110      28.306   4.335   6.605  0.00  0.00    +0.000 A 
ENDBRANCH  27  29
ENDBRANCH   6  26
TORSDOF 6
ENDMDL
MODEL 3
REMARK VINA RESULT:       2.0      2.077      3.166
REMARK  Name = ligand_pdbs\M9R.pdb
REMARK  6 active torsions:
REMARK  status: ('A' for Active; 'I' for Inactive)
REMARK    1  A    between atoms: C07_2  and  C05_5
REMARK    2  A    between atoms: C01_10  and  N08_11
REMARK    3  A    between atoms: N11_14  and  C14_17
REMARK    4  A    between atoms: C17_20  and  C20_21
REMARK    5  A    between atoms: C15_25  and  N23_26
REMARK    6  A    between atoms: C24_27  and  C26_29
REMARK                            x       y       z     vdW  Elec       q    Type
REMARK                         _______ _______ _______ _____ _____    ______ ____
ROOT
ATOM      1  C14 M9R C1110      25.705   5.104   4.275  0.00  0.00    +0.000 A 
ATOM      2  C19 M9R C1110      25.986   5.111   2.926  0.00  0.00    +0.000 A 
ATOM      3  C18 M9R C1110      26.223   3.945   2.229  0.00  0.00    +0.000 A 
ATOM      4  C17 M9R C1110      26.184   2.746   2.898  0.00  0.00    +0.000 A 
ATOM      5  C16 M9R C1110      25.915   2.730   4.253  0.00  0.00    +0.000 A 
ATOM      6  C15 M9R C1110      25.676   3.894   4.961  0.00  0.00    +0.000 A 
ENDROOT
BRANCH   1  10
ATOM      7  N08 M9R C1110      24.852   8.679   6.151  0.00  0.00    +0.000 N 
ATOM      8  C13 M9R C1110      23.843   7.705   5.831  0.00  0.00    +0.000 C 
ATOM      9  C12 M9R C1110      24.293   7.099   4.519  0.00  0.00    +0.000 C 
ATOM     10  N11 M9R C1110      25.498   6.363   4.844  0.00  0.00    +0.000 N 
ATOM     11  C10 M9R C1110      26.430   6.907   5.806  0.00  0.00    +0.000 C 
ATOM     12  C09 M9R C1110      26.230   8.409   5.811  0.00  0.00    +0.000 C 
BRANCH   7  18
ATOM     13  C05 M9R C1110      23.982  11.164   8.703  0.00  0.00    +0.000 A 
ATOM     14  C04 M9R C1110      23.796  12.277   7.919  0.00  0.00    +0.000 A 
ATOM     15  C03 M9R C1110      23.975  12.192   6.555  0.00  0.00    +0.000 A 
ATOM     16  C02 M9R C1110      24.327  10.987   5.988  0.00  0.00    +0.000 A 
ATOM     17  C06 M9R C1110      24.328   9.953   8.136  0.00  0.00    +0.000 A 
ATOM     18  C01 M9R C1110      24.506   9.870   6.767  0.00  0.00    +0.000 A 
BRANCH  13  20
ATOM     19  F35 M9R C1110      24.692  12.067  10.679  0.00  0.00    +0.000 F 
ATOM     20  C07 M9R C1110      23.797  11.309  10.163  0.00  0.00    +0.000 C 
ATOM     21  F33 M9R C1110      23.807  10.159  10.710  0.00  0.00    +0.000 F 
ATOM     22  F34 M9R C1110      22.641  11.784  10.467  0.00  0.00    +0.000 F 
ENDBRANCH  13  20
ENDBRANCH   7  18
ENDBRANCH   1  10
BRANCH   4  23
ATOM     23  C20 M9R C1110      26.454   1.478   2.152  0.00  0.00    +0.000 C 
ATOM     24  O22 M9R C1110      25.687   1.113   1.250  0.00  0.00    +0.000 OA
ATOM     25  O21 M9R C1110      27.437   0.792   2.466  0.00  0.00    +0.000 OA
ENDBRANCH   4  23
BRANCH   6  26
ATOM     26  N23 M9R C1110      25.413   3.774   6.282  0.00  0.00    +0.000 NA
ATOM     27  C24 M9R C1110      26.242   3.377   7.251  0.00  0.00    +0.000 C 
ATOM     28  O25 M9R C1110      25.904   3.445   8.423  0.00  0.00    +0.000 OA
BRANCH  27  29
ATOM     29  C26 M9R C1110      27.602   2.793   6.968  0.00  0.00    +0.000 A 
ATOM     30  C31 M9R C1110      27.714   1.422   6.807  0.00  0.00    +0.000 A 
ATOM     31  C30 M9R C1110      28.944   0.845   6.527  0.00  0.00    +0.000 A 
ATOM     32  C29 M9R C1110      30.072   1.645   6.410  0.00  0.00    +0.000 A 
ATOM     33  F32 M9R C1110      31.268   1.109   6.151  0.00  0.00    +0.000 F 
ATOM     34  C28 M9R C1110      29.976   3.010   6.569  0.00  0.00    +0.000 A 
ATOM     35  C27 M9R C1110      28.746   3.565   6.842  0.00  0.00    +0.000 A 
ENDBRANCH  27  29
ENDBRANCH   6  26
TORSDOF 6
ENDMDL
MODEL 4
REMARK VINA RESULT:       2.3      2.305      3.410
REMARK  Name = ligand_pdbs\M9R.pdb
REMARK  6 active torsions:
REMARK  status: ('A' for Active; 'I' for Inactive)
REMARK    1  A    between atoms: C07_2  and  C05_5
REMARK    2  A    between atoms: C01_10  and  N08_11
REMARK    3  A    between atoms: N11_14  and  C14_17
REMARK    4  A    between atoms: C17_20  and  C20_21
REMARK    5  A    between atoms: C15_25  and  N23_26
REMARK    6  A    between atoms: C24_27  and  C26_29
REMARK                            x       y       z     vdW  Elec       q    Type
REMARK                         _______ _______ _______ _____ _____    ______ ____
ROOT
ATOM      1  C14 M9R C1110      25.903   5.024   4.491  0.00  0.00    +0.000 A 
ATOM      2  C19 M9R C1110      25.142   4.699   3.389  0.00  0.00    +0.000 A 
ATOM      3  C18 M9R C1110      25.279   3.487   2.745  0.00  0.00    +0.000 A 
ATOM      4  C17 M9R C1110      26.202   2.582   3.211  0.00  0.00    +0.000 A 
ATOM      5  C16 M9R C1110      26.978   2.903   4.308  0.00  0.00    +0.000 A 
ATOM      6  C15 M9R C1110      26.848   4.116   4.960  0.00  0.00    +0.000 A 
ENDROOT
BRANCH   1  10
ATOM      7  N08 M9R C1110      24.922   8.624   6.253  0.00  0.00    +0.000 N 
ATOM      8  C13 M9R C1110      23.935   7.656   5.851  0.00  0.00    +0.000 C 
ATOM      9  C12 M9R C1110      24.495   7.033   4.590  0.00  0.00    +0.000 C 
ATOM     10  N11 M9R C1110      25.658   6.289   5.029  0.00  0.00    +0.000 N 
ATOM     11  C10 M9R C1110      26.505   6.833   6.066  0.00  0.00    +0.000 C 
ATOM     12  C09 M9R C1110      26.321   8.338   6.041  0.00  0.00    +0.000 C 
BRANCH   7  18
ATOM     13  C05 M9R C1110      23.977  11.173   8.713  0.00  0.00    +0.000 A 
ATOM     14  C04 M9R C1110      23.739  12.245   7.888  0.00  0.00    +0.000 A 
ATOM     15  C03 M9R C1110      23.907  12.112   6.527  0.00  0.00    +0.000 A 
ATOM     16  C02 M9R C1110      24.302  10.900   6.004  0.00  0.00    +0.000 A 
ATOM     17  C06 M9R C1110      24.366   9.954   8.190  0.00  0.00    +0.000 A 
ATOM     18  C01 M9R C1110      24.534   9.824   6.824  0.00  0.00    +0.000 A 
BRANCH  13  20
ATOM     19  F35 M9R C1110      24.704  12.137  10.654  0.00  0.00    +0.000 F 
ATOM     20  C07 M9R C1110      23.800  11.369  10.169  0.00  0.00    +0.000 C 
ATOM     21  F33 M9R C1110      23.804  10.237  10.754  0.00  0.00    +0.000 F 
ATOM     22  F34 M9R C1110      22.650  11.863  10.462  0.00  0.00    +0.000 F 
ENDBRANCH  13  20
ENDBRANCH   7  18
ENDBRANCH   1  10
BRANCH   4  23
ATOM     23  C20 M9R C1110      26.367   1.272   2.510  0.00  0.00    +0.000 C 
ATOM     24  O22 M9R C1110      27.420   0.630   2.634  0.00  0.00    +0.000 OA
ATOM     25  O21 M9R C1110      25.450   0.854   1.788  0.00  0.00    +0.000 OA
ENDBRANCH   4  23
BRANCH   6  26
ATOM     26  N23 M9R C1110      27.646   4.335   6.031  0.00  0.00    +0.000 NA
ATOM     27  C24 M9R C1110      28.645   3.569   6.478  0.00  0.00    +0.000 C 
ATOM     28  O25 M9R C1110      29.368   3.960   7.382  0.00  0.00    +0.000 OA
BRANCH  27  29
ATOM     29  C26 M9R C1110      28.914   2.188   5.940  0.00  0.00    +0.000 A 
ATOM     30  C31 M9R C1110      29.849   2.041   4.929  0.00  0.00    +0.000 A 
ATOM     31  C30 M9R C1110      30.141   0.785   4.417  0.00  0.00    +0.000 A 
ATOM     32  C29 M9R C1110      29.491  -0.333   4.920  0.00  0.00    +0.000 A 
ATOM     33  F32 M9R C1110      29.750  -1.551   4.434  0.00  0.00    +0.000 F 
ATOM     34  C28 M9R C1110      28.559  -0.203   5.925  0.00  0.00    +0.000 A 
ATOM     35  C27 M9R C1110      28.285   1.051   6.422  0.00  0.00    +0.000 A 
ENDBRANCH  27  29
ENDBRANCH   6  26
TORSDOF 6
ENDMDL
MODEL 5
REMARK VINA RESULT:       2.7      1.878      2.223
REMARK  Name = ligand_pdbs\M9R.pdb
REMARK  6 active torsions:
REMARK  status: ('A' for Active; 'I' for Inactive)
REMARK    1  A    between atoms: C07_2  and  C05_5
REMARK    2  A    between atoms: C01_10  and  N08_11
REMARK    3  A    between atoms: N11_14  and  C14_17
REMARK    4  A    between atoms: C17_20  and  C20_21
REMARK    5  A    between atoms: C15_25  and  N23_26
REMARK    6  A    between atoms: C24_27  and  C26_29
REMARK                            x       y       z     vdW  Elec       q    Type
REMARK                         _______ _______ _______ _____ _____    ______ ____
ROOT
ATOM      1  C14 M9R C1110      25.916   1.822   4.824  0.00  0.00    +0.000 A 
ATOM      2  C19 M9R C1110      24.967   1.117   4.115  0.00  0.00    +0.000 A 
ATOM      3  C18 M9R C1110      25.069  -0.245   3.923  0.00  0.00    +0.000 A 
ATOM      4  C17 M9R C1110      26.147  -0.915   4.446  0.00  0.00    +0.000 A 
ATOM      5  C16 M9R C1110      27.111  -0.216   5.148  0.00  0.00    +0.000 A 
ATOM      6  C15 M9R C1110      27.017   1.149   5.346  0.00  0.00    +0.000 A 
ENDROOT
BRANCH   1  10
ATOM      7  N08 M9R C1110      25.502   5.926   4.935  0.00  0.00    +0.000 N 
ATOM      8  C13 M9R C1110      26.782   5.269   4.962  0.00  0.00    +0.000 C 
ATOM      9  C12 M9R C1110      26.551   4.002   5.759  0.00  0.00    +0.000 C 
ATOM     10  N11 M9R C1110      25.682   3.194   4.926  0.00  0.00    +0.000 N 
ATOM     11  C10 M9R C1110      24.634   3.830   4.160  0.00  0.00    +0.000 C 
ATOM     12  C09 M9R C1110      24.300   5.130   4.864  0.00  0.00    +0.000 C 
BRANCH   7  18
ATOM     13  C05 M9R C1110      24.765   9.335   6.065  0.00  0.00    +0.000 A 
ATOM     14  C04 M9R C1110      25.286  10.065   5.024  0.00  0.00    +0.000 A 
ATOM     15  C03 M9R C1110      25.886   9.417   3.966  0.00  0.00    +0.000 A 
ATOM     16  C02 M9R C1110      25.949   8.040   3.957  0.00  0.00    +0.000 A 
ATOM     17  C06 M9R C1110      24.821   7.954   6.055  0.00  0.00    +0.000 A 
ATOM     18  C01 M9R C1110      25.423   7.307   4.992  0.00  0.00    +0.000 A 
BRANCH  13  20
ATOM     19  F35 M9R C1110      24.763   9.862   8.290  0.00  0.00    +0.000 F 
ATOM     20  C07 M9R C1110      24.147  10.076   7.187  0.00  0.00    +0.000 C 
ATOM     21  F33 M9R C1110      22.919   9.754   7.283  0.00  0.00    +0.000 F 
ATOM     22  F34 M9R C1110      24.118  11.345   6.980  0.00  0.00    +0.000 F 
ENDBRANCH  13  20
ENDBRANCH   7  18
ENDBRANCH   1  10
BRANCH   4  23
ATOM     23  C20 M9R C1110      26.273  -2.390   4.229  0.00  0.00    +0.000 C 
ATOM     24  O22 M9R C1110      25.411  -2.997   3.578  0.00  0.00    +0.000 OA
ATOM     25  O21 M9R C1110      27.234  -2.993   4.728  0.00  0.00    +0.000 OA
ENDBRANCH   4  23
BRANCH   6  26
ATOM     26  N23 M9R C1110      28.005   1.743   6.054  0.00  0.00    +0.000 NA
ATOM     27  C24 M9R C1110      29.324   1.616   5.887  0.00  0.00    +0.000 C 
ATOM     28  O25 M9R C1110      30.099   2.319   6.518  0.00  0.00    +0.000 OA
BRANCH  27  29
ATOM     29  C26 M9R C1110      29.931   0.594   4.962  0.00  0.00    +0.000 A 
ATOM     30  C31 M9R C1110      30.555  -0.513   5.516  0.00  0.00    +0.000 A 
ATOM     31  C30 M9R C1110      31.111  -1.487   4.701  0.00  0.00    +0.000 A 
ATOM     32  C29 M9R C1110      31.046  -1.354   3.321  0.00  0.00    +0.000 A 
ATOM     33  F32 M9R C1110      31.584  -2.276   2.517  0.00  0.00    +0.000 F 
ATOM     34  C28 M9R C1110      30.430  -0.259   2.756  0.00  0.00    +0.000 A 
ATOM     35  C27 M9R C1110      29.880   0.696   3.582  0.00  0.00    +0.000 A 
ENDBRANCH  27  29
ENDBRANCH   6  26
TORSDOF 6
ENDMDL
MODEL 6
REMARK VINA RESULT:       2.7      2.356      3.951
REMARK  Name = ligand_pdbs\M9R.pdb
REMARK  6 active torsions:
REMARK  status: ('A' for Active; 'I' for Inactive)
REMARK    1  A    between atoms: C07_2  and  C05_5
REMARK    2  A    between atoms: C01_10  and  N08_11
REMARK    3  A    between atoms: N11_14  and  C14_17
REMARK    4  A    between atoms: C17_20  and  C20_21
REMARK    5  A    between atoms: C15_25  and  N23_26
REMARK    6  A    between atoms: C24_27  and  C26_29
REMARK                            x       y       z     vdW  Elec       q    Type
REMARK                         _______ _______ _______ _____ _____    ______ ____
ROOT
ATOM      1  C14 M9R C1110      28.521   3.319   5.210  0.00  0.00    +0.000 A 
ATOM      2  C19 M9R C1110      29.421   3.223   6.250  0.00  0.00    +0.000 A 
ATOM      3  C18 M9R C1110      30.236   2.122   6.405  0.00  0.00    +0.000 A 
ATOM      4  C17 M9R C1110      30.145   1.090   5.503  0.00  0.00    +0.000 A 
ATOM      5  C16 M9R C1110      29.237   1.170   4.464  0.00  0.00    +0.000 A 
ATOM      6  C15 M9R C1110      28.415   2.270   4.300  0.00  0.00    +0.000 A 
ENDROOT
BRANCH   1  10
ATOM      7  N08 M9R C1110      26.550   6.943   5.246  0.00  0.00    +0.000 N 
ATOM      8  C13 M9R C1110      27.575   6.602   6.197  0.00  0.00    +0.000 C 
ATOM      9  C12 M9R C1110      27.396   5.119   6.444  0.00  0.00    +0.000 C 
ATOM     10  N11 M9R C1110      27.759   4.488   5.191  0.00  0.00    +0.000 N 
ATOM     11  C10 M9R C1110      27.391   5.116   3.942  0.00  0.00    +0.000 C 
ATOM     12  C09 M9R C1110      26.185   5.989   4.226  0.00  0.00    +0.000 C 
BRANCH   7  18
ATOM     13  C05 M9R C1110      24.642   9.818   6.488  0.00  0.00    +0.000 A 
ATOM     14  C04 M9R C1110      24.638  10.620   5.372  0.00  0.00    +0.000 A 
ATOM     15  C03 M9R C1110      25.280  10.202   4.226  0.00  0.00    +0.000 A 
ATOM     16  C02 M9R C1110      25.910   8.977   4.206  0.00  0.00    +0.000 A 
ATOM     17  C06 M9R C1110      25.268   8.586   6.468  0.00  0.00    +0.000 A 
ATOM     18  C01 M9R C1110      25.910   8.169   5.316  0.00  0.00    +0.000 A 
BRANCH  13  20
ATOM     19  F35 M9R C1110      22.815   9.757   7.860  0.00  0.00    +0.000 F 
ATOM     20  C07 M9R C1110      23.956  10.317   7.700  0.00  0.00    +0.000 C 
ATOM     21  F33 M9R C1110      23.835  11.583   7.629  0.00  0.00    +0.000 F 
ATOM     22  F34 M9R C1110      24.650  10.133   8.767  0.00  0.00    +0.000 F 
ENDBRANCH  13  20
ENDBRANCH   7  18
ENDBRANCH   1  10
BRANCH   4  23
ATOM     23  C20 M9R C1110      31.014  -0.115   5.672  0.00  0.00    +0.000 C 
ATOM     24  O22 M9R C1110      30.784  -1.144   5.021  0.00  0.00    +0.000 OA
ATOM     25  O21 M9R C1110      31.947  -0.076   6.487  0.00  0.00    +0.000 OA
ENDBRANCH   4  23
BRANCH   6  26
ATOM     26  N23 M9R C1110      27.567   2.261   3.247  0.00  0.00    +0.000 NA
ATOM     27  C24 M9R C1110      26.752   1.276   2.860  0.00  0.00    +0.000 C 
ATOM     28  O25 M9R C1110      25.942   1.458   1.964  0.00  0.00    +0.000 OA
BRANCH  27  29
ATOM     29  C26 M9R C1110      26.806  -0.106   3.458  0.00  0.00    +0.000 A 
ATOM     30  C31 M9R C1110      27.446  -1.110   2.750  0.00  0.00    +0.000 A 
ATOM     31  C30 M9R C1110      27.535  -2.392   3.273  0.00  0.00    +0.000 A 
ATOM     32  C29 M9R C1110      26.977  -2.673   4.512  0.00  0.00    +0.000 A 
ATOM     33  F32 M9R C1110      27.042  -3.904   5.029  0.00  0.00    +0.000 F 
ATOM     34  C28 M9R C1110      26.337  -1.685   5.227  0.00  0.00    +0.000 A 
ATOM     35  C27 M9R C1110      26.263  -0.418   4.694  0.00  0.00    +0.000 A 
ENDBRANCH  27  29
ENDBRANCH   6  26
TORSDOF 6
ENDMDL
MODEL 7
REMARK VINA RESULT:       2.8      2.432      3.591
REMARK  Name = ligand_pdbs\M9R.pdb
REMARK  6 active torsions:
REMARK  status: ('A' for Active; 'I' for Inactive)
REMARK    1  A    between atoms: C07_2  and  C05_5
REMARK    2  A    between atoms: C01_10  and  N08_11
REMARK    3  A    between atoms: N11_14  and  C14_17
REMARK    4  A    between atoms: C17_20  and  C20_21
REMARK    5  A    between atoms: C15_25  and  N23_26
REMARK    6  A    between atoms: C24_27  and  C26_29
REMARK                            x       y       z     vdW  Elec       q    Type
REMARK                         _______ _______ _______ _____ _____    ______ ____
ROOT
ATOM      1  C14 M9R C1110      28.053   2.499   4.382  0.00  0.00    +0.000 A 
ATOM      2  C19 M9R C1110      28.468   2.072   3.139  0.00  0.00    +0.000 A 
ATOM      3  C18 M9R C1110      28.856   0.768   2.913  0.00  0.00    +0.000 A 
ATOM      4  C17 M9R C1110      28.835  -0.126   3.955  0.00  0.00    +0.000 A 
ATOM      5  C16 M9R C1110      28.433   0.295   5.208  0.00  0.00    +0.000 A 
ATOM      6  C15 M9R C1110      28.042   1.600   5.445  0.00  0.00    +0.000 A 
ENDROOT
BRANCH   1  10
ATOM      7  N08 M9R C1110      26.689   6.384   4.647  0.00  0.00    +0.000 N 
ATOM      8  C13 M9R C1110      25.946   5.338   3.995  0.00  0.00    +0.000 C 
ATOM      9  C12 M9R C1110      26.998   4.462   3.349  0.00  0.00    +0.000 C 
ATOM     10  N11 M9R C1110      27.701   3.848   4.458  0.00  0.00    +0.000 N 
ATOM     11  C10 M9R C1110      27.961   4.619   5.653  0.00  0.00    +0.000 C 
ATOM     12  C09 M9R C1110      27.968   6.078   5.243  0.00  0.00    +0.000 C 
BRANCH   7  18
ATOM     13  C05 M9R C1110      24.980   9.428   5.769  0.00  0.00    +0.000 A 
ATOM     14  C04 M9R C1110      25.209  10.257   4.698  0.00  0.00    +0.000 A 
ATOM     15  C03 M9R C1110      25.939   9.799   3.622  0.00  0.00    +0.000 A 
ATOM     16  C02 M9R C1110      26.423   8.509   3.626  0.00  0.00    +0.000 A 
ATOM     17  C06 M9R C1110      25.458   8.131   5.773  0.00  0.00    +0.000 A 
ATOM     18  C01 M9R C1110      26.189   7.675   4.692  0.00  0.00    +0.000 A 
BRANCH  13  20
ATOM     19  F35 M9R C1110      23.035   9.454   6.971  0.00  0.00    +0.000 F 
ATOM     20  C07 M9R C1110      24.207   9.970   6.908  0.00  0.00    +0.000 C 
ATOM     21  F33 M9R C1110      24.140  11.238   6.812  0.00  0.00    +0.000 F 
ATOM     22  F34 M9R C1110      24.794   9.777   8.036  0.00  0.00    +0.000 F 
ENDBRANCH  13  20
ENDBRANCH   7  18
ENDBRANCH   1  10
BRANCH   4  23
ATOM     23  C20 M9R C1110      29.269  -1.539   3.722  0.00  0.00    +0.000 C 
ATOM     24  O22 M9R C1110      28.435  -2.455   3.741  0.00  0.00    +0.000 OA
ATOM     25  O21 M9R C1110      30.470  -1.777   3.535  0.00  0.00    +0.000 OA
ENDBRANCH   4  23
BRANCH   6  26
ATOM     26  N23 M9R C1110      27.655   1.915   6.702  0.00  0.00    +0.000 NA
ATOM     27  C24 M9R C1110      26.449   2.318   7.112  0.00  0.00    +0.000 C 
ATOM     28  O25 M9R C1110      26.208   2.440   8.303  0.00  0.00    +0.000 OA
BRANCH  27  29
ATOM     29  C26 M9R C1110      25.345   2.683   6.154  0.00  0.00    +0.000 A 
ATOM     30  C31 M9R C1110      24.687   3.890   6.329  0.00  0.00    +0.000 A 
ATOM     31  C30 M9R C1110      23.677   4.272   5.459  0.00  0.00    +0.000 A 
ATOM     32  C29 M9R C1110      23.320   3.442   4.406  0.00  0.00    +0.000 A 
ATOM     33  F32 M9R C1110      22.343   3.787   3.562  0.00  0.00    +0.000 F 
ATOM     34  C28 M9R C1110      23.965   2.239   4.219  0.00  0.00    +0.000 A 
ATOM     35  C27 M9R C1110      24.968   1.878   5.091  0.00  0.00    +0.000 A 
ENDBRANCH  27  29
ENDBRANCH   6  26
TORSDOF 6
ENDMDL
MODEL 8
REMARK VINA RESULT:       3.1      2.302      3.245
REMARK  Name = ligand_pdbs\M9R.pdb
REMARK  6 active torsions:
REMARK  status: ('A' for Active; 'I' for Inactive)
REMARK    1  A    between atoms: C07_2  and  C05_5
REMARK    2  A    between atoms: C01_10  and  N08_11
REMARK    3  A    between atoms: N11_14  and  C14_17
REMARK    4  A    between atoms: C17_20  and  C20_21
REMARK    5  A    between atoms: C15_25  and  N23_26
REMARK    6  A    between atoms: C24_27  and  C26_29
REMARK                            x       y       z     vdW  Elec       q    Type
REMARK                         _______ _______ _______ _____ _____    ______ ____
ROOT
ATOM      1  C14 M9R C1110      27.959   2.405   3.794  0.00  0.00    +0.000 A 
ATOM      2  C19 M9R C1110      29.262   2.077   4.102  0.00  0.00    +0.000 A 
ATOM      3  C18 M9R C1110      29.736   0.788   3.970  0.00  0.00    +0.000 A 
ATOM      4  C17 M9R C1110      28.885  -0.195   3.526  0.00  0.00    +0.000 A 
ATOM      5  C16 M9R C1110      27.573   0.122   3.227  0.00  0.00    +0.000 A 
ATOM      6  C15 M9R C1110      27.089   1.411   3.356  0.00  0.00    +0.000 A 
ENDROOT
BRANCH   1  10
ATOM      7  N08 M9R C1110      26.642   6.273   4.371  0.00  0.00    +0.000 N 
ATOM      8  C13 M9R C1110      25.934   5.320   3.559  0.00  0.00    +0.000 C 
ATOM      9  C12 M9R C1110      27.017   4.490   2.902  0.00  0.00    +0.000 C 
ATOM     10  N11 M9R C1110      27.624   3.747   3.988  0.00  0.00    +0.000 N 
ATOM     11  C10 M9R C1110      27.807   4.382   5.274  0.00  0.00    +0.000 C 
ATOM     12  C09 M9R C1110      27.868   5.875   5.023  0.00  0.00    +0.000 C 
BRANCH   7  18
ATOM     13  C05 M9R C1110      25.031   9.262   5.754  0.00  0.00    +0.000 A 
ATOM     14  C04 M9R C1110      25.217  10.150   4.723  0.00  0.00    +0.000 A 
ATOM     15  C03 M9R C1110      25.886   9.749   3.586  0.00  0.00    +0.000 A 
ATOM     16  C02 M9R C1110      26.353   8.457   3.490  0.00  0.00    +0.000 A 
ATOM     17  C06 M9R C1110      25.492   7.963   5.658  0.00  0.00    +0.000 A 
ATOM     18  C01 M9R C1110      26.162   7.564   4.516  0.00  0.00    +0.000 A 
BRANCH  13  20
ATOM     19  F35 M9R C1110      23.152   9.234   7.055  0.00  0.00    +0.000 F 
ATOM     20  C07 M9R C1110      24.324   9.743   6.961  0.00  0.00    +0.000 C 
ATOM     21  F33 M9R C1110      24.265  11.016   6.940  0.00  0.00    +0.000 F 
ATOM     22  F34 M9R C1110      24.966   9.482   8.044  0.00  0.00    +0.000 F 
ENDBRANCH  13  20
ENDBRANCH   7  18
ENDBRANCH   1  10
BRANCH   4  23
ATOM     23  C20 M9R C1110      29.386  -1.598   3.394  0.00  0.00    +0.000 C 
ATOM     24  O22 M9R C1110      28.586  -2.530   3.235  0.00  0.00    +0.000 OA
ATOM     25  O21 M9R C1110      30.604  -1.812   3.471  0.00  0.00    +0.000 OA
ENDBRANCH   4  23
BRANCH   6  26
ATOM     26  N23 M9R C1110      25.794   1.624   3.030  0.00  0.00    +0.000 NA
ATOM     27  C24 M9R C1110      24.855   2.234   3.758  0.00  0.00    +0.000 C 
ATOM     28  O25 M9R C1110      23.757   2.473   3.279  0.00  0.00    +0.000 OA
BRANCH  27  29
ATOM     29  C26 M9R C1110      25.067   2.621   5.199  0.00  0.00    +0.000 A 
ATOM     30  C31 M9R C1110      25.940   1.868   5.966  0.00  0.00    +0.000 A 
ATOM     31  C30 M9R C1110      26.178   2.201   7.291  0.00  0.00    +0.000 A 
ATOM     32  C29 M9R C1110      25.537   3.295   7.855  0.00  0.00    +0.000 A 
ATOM     33  F32 M9R C1110      25.744   3.627   9.132  0.00  0.00    +0.000 F 
ATOM     34  C28 M9R C1110      24.666   4.053   7.104  0.00  0.00    +0.000 A 
ATOM     35  C27 M9R C1110      24.445   3.709   5.789  0.00  0.00    +0.000 A 
ENDBRANCH  27  29
ENDBRANCH   6  26
TORSDOF 6
ENDMDL
MODEL 9
REMARK VINA RESULT:       3.8      1.637      2.120
REMARK  Name = ligand_pdbs\M9R.pdb
REMARK  6 active torsions:
REMARK  status: ('A' for Active; 'I' for Inactive)
REMARK    1  A    between atoms: C07_2  and  C05_5
REMARK    2  A    between atoms: C01_10  and  N08_11
REMARK    3  A    between atoms: N11_14  and  C14_17
REMARK    4  A    between atoms: C17_20  and  C20_21
REMARK    5  A    between atoms: C15_25  and  N23_26
REMARK    6  A    between atoms: C24_27  and  C26_29
REMARK                            x       y       z     vdW  Elec       q    Type
REMARK                         _______ _______ _______ _____ _____    ______ ____
ROOT
ATOM      1  C14 M9R C1110      26.589   2.210   4.078  0.00  0.00    +0.000 A 
ATOM      2  C19 M9R C1110      25.535   1.344   3.879  0.00  0.00    +0.000 A 
ATOM      3  C18 M9R C1110      25.731  -0.011   3.715  0.00  0.00    +0.000 A 
ATOM      4  C17 M9R C1110      27.011  -0.510   3.745  0.00  0.00    +0.000 A 
ATOM      5  C16 M9R C1110      28.075   0.351   3.932  0.00  0.00    +0.000 A 
ATOM      6  C15 M9R C1110      27.888   1.711   4.097  0.00  0.00    +0.000 A 
ENDROOT
BRANCH   1  10
ATOM      7  N08 M9R C1110      25.868   6.242   4.571  0.00  0.00    +0.000 N 
ATOM      8  C13 M9R C1110      26.788   5.507   5.397  0.00  0.00    +0.000 C 
ATOM      9  C12 M9R C1110      26.165   4.135   5.543  0.00  0.00    +0.000 C 
ATOM     10  N11 M9R C1110      26.235   3.553   4.217  0.00  0.00    +0.000 N 
ATOM     11  C10 M9R C1110      26.009   4.387   3.059  0.00  0.00    +0.000 C 
ATOM     12  C09 M9R C1110      25.159   5.556   3.516  0.00  0.00    +0.000 C 
BRANCH   7  18
ATOM     13  C05 M9R C1110      24.864   9.406   6.129  0.00  0.00    +0.000 A 
ATOM     14  C04 M9R C1110      25.238  10.299   5.153  0.00  0.00    +0.000 A 
ATOM     15  C03 M9R C1110      25.830   9.840   3.996  0.00  0.00    +0.000 A 
ATOM     16  C02 M9R C1110      26.031   8.488   3.823  0.00  0.00    +0.000 A 
ATOM     17  C06 M9R C1110      25.059   8.049   5.955  0.00  0.00    +0.000 A 
ATOM     18  C01 M9R C1110      25.652   7.592   4.792  0.00  0.00    +0.000 A 
BRANCH  13  20
ATOM     19  F35 M9R C1110      24.051  11.210   7.273  0.00  0.00    +0.000 F 
ATOM     20  C07 M9R C1110      24.250   9.947   7.361  0.00  0.00    +0.000 C 
ATOM     21  F33 M9R C1110      24.989   9.673   8.361  0.00  0.00    +0.000 F 
ATOM     22  F34 M9R C1110      23.130   9.380   7.640  0.00  0.00    +0.000 F 
ENDBRANCH  13  20
ENDBRANCH   7  18
ENDBRANCH   1  10
BRANCH   4  23
ATOM     23  C20 M9R C1110      27.233  -1.977   3.554  0.00  0.00    +0.000 C 
ATOM     24  O22 M9R C1110      26.508  -2.796   4.136  0.00  0.00    +0.000 OA
ATOM     25  O21 M9R C1110      28.163  -2.356   2.828  0.00  0.00    +0.000 OA
ENDBRANCH   4  23
BRANCH   6  26
ATOM     26  N23 M9R C1110      28.991   2.471   4.284  0.00  0.00    +0.000 NA
ATOM     27  C24 M9R C1110      29.980   2.279   5.161  0.00  0.00    +0.000 C 
ATOM     28  O25 M9R C1110      30.983   2.976   5.127  0.00  0.00    +0.000 OA
BRANCH  27  29
ATOM     29  C26 M9R C1110      29.910   1.242   6.252  0.00  0.00    +0.000 A 
ATOM     30  C31 M9R C1110      31.060   0.954   6.968  0.00  0.00    +0.000 A 
ATOM     31  C30 M9R C1110      31.034   0.019   7.993  0.00  0.00    +0.000 A 
ATOM     32  C29 M9R C1110      29.850  -0.634   8.302  0.00  0.00    +0.000 A 
ATOM     33  F32 M9R C1110      29.806  -1.546   9.279  0.00  0.00    +0.000 F 
ATOM     34  C28 M9R C1110      28.699  -0.360   7.598  0.00  0.00    +0.000 A 
ATOM     35  C27 M9R C1110      28.743   0.574   6.587  0.00  0.00    +0.000 A 
ENDBRANCH  27  29
ENDBRANCH   6  26
TORSDOF 6
ENDMDL
