MODEL 1
REMARK VINA RESULT:       1.9      0.000      0.000
REMARK  Name = ligand_pdbs\MBI.pdb
REMARK  5 active torsions:
REMARK  status: ('A' for Active; 'I' for Inactive)
REMARK    1  A    between atoms: C08_8  and  N09_9
REMARK    2  A    between atoms: N12_12  and  C15_15
REMARK    3  A    between atoms: C16_16  and  N17_17
REMARK    4  A    between atoms: C18_18  and  C20_20
REMARK    5  A    between atoms: C28_28  and  C31_31
REMARK                            x       y       z     vdW  Elec       q    Type
REMARK                         _______ _______ _______ _____ _____    ______ ____
ROOT
ATOM      1  C15 MBI C1115      25.376   4.624   4.256  0.00  0.00    +0.000 A 
ATOM      2  C16 MBI C1115      26.476   5.271   4.862  0.00  0.00    +0.000 A 
ATOM      3  C27 MBI C1115      26.424   6.614   5.182  0.00  0.00    +0.000 A 
ATOM      4  C28 MBI C1115      25.266   7.335   4.889  0.00  0.00    +0.000 A 
ATOM      5  C29 MBI C1115      24.170   6.713   4.278  0.00  0.00    +0.000 A 
ATOM      6  C30 MBI C1115      24.220   5.356   3.960  0.00  0.00    +0.000 A 
ENDROOT
BRANCH   1  10
ATOM      7  N09 MBI C1115      26.114   0.456   3.842  0.00  0.00    +0.000 N 
ATOM      8  C10 MBI C1115      26.750   1.296   2.830  0.00  0.00    +0.000 C 
ATOM      9  C11 MBI C1115      26.737   2.800   3.174  0.00  0.00    +0.000 C 
ATOM     10  N12 MBI C1115      25.549   3.173   3.943  0.00  0.00    +0.000 N 
ATOM     11  C13 MBI C1115      25.336   2.354   5.154  0.00  0.00    +0.000 C 
ATOM     12  C14 MBI C1115      26.101   1.029   5.180  0.00  0.00    +0.000 C 
BRANCH   7  20
ATOM     13  C01 MBI C1115      29.149  -0.466   3.894  0.00  0.00    +0.000 C 
ATOM     14  C02 MBI C1115      27.911  -1.374   3.842  0.00  0.00    +0.000 A 
ATOM     15  C03 MBI C1115      28.205  -2.729   3.800  0.00  0.00    +0.000 A 
ATOM     16  C04 MBI C1115      27.179  -3.659   3.721  0.00  0.00    +0.000 A 
ATOM     17  C05 MBI C1115      25.865  -3.217   3.683  0.00  0.00    +0.000 A 
ATOM     18 CL6  MBI C1115      24.569  -4.417   3.596  0.00  0.00    +0.000 Cl
ATOM     19  C07 MBI C1115      25.550  -1.866   3.729  0.00  0.00    +0.000 A 
ATOM     20  C08 MBI C1115      26.561  -0.934   3.809  0.00  0.00    +0.000 A 
ENDBRANCH   7  20
ENDBRANCH   1  10
BRANCH   2  21
ATOM     21  N17 MBI C1115      27.648   4.427   5.153  0.00  0.00    +0.000 NA
ATOM     22  C18 MBI C1115      27.901   3.640   6.369  0.00  0.00    +0.000 C 
ATOM     23  O19 MBI C1115      27.088   3.611   7.251  0.00  0.00    +0.000 OA
BRANCH  22  24
ATOM     24  C20 MBI C1115      29.250   2.861   6.437  0.00  0.00    +0.000 A 
ATOM     25  C21 MBI C1115      29.211   1.553   6.906  0.00  0.00    +0.000 A 
ATOM     26  C22 MBI C1115      30.373   0.794   6.996  0.00  0.00    +0.000 A 
ATOM     27  C23 MBI C1115      31.628   1.297   6.643  0.00  0.00    +0.000 A 
ATOM     28 BR1  MBI C1115      33.221   0.090   6.812  0.00  0.00    +0.000 Br
ATOM     29  C25 MBI C1115      31.661   2.634   6.168  0.00  0.00    +0.000 A 
ATOM     30  C26 MBI C1115      30.498   3.407   6.069  0.00  0.00    +0.000 A 
ENDBRANCH  22  24
ENDBRANCH   2  21
BRANCH   4  31
ATOM     31  C31 MBI C1115      25.241   8.830   5.243  0.00  0.00    +0.000 C 
ATOM     32  O32 MBI C1115      24.782   9.222   6.358  0.00  0.00    +0.000 OA
ATOM     33  O33 MBI C1115      25.704   9.655   4.398  0.00  0.00    +0.000 OA
ENDBRANCH   4  31
TORSDOF 5
ENDMDL
MODEL 2
REMARK VINA RESULT:       4.6      1.264      1.724
REMARK  Name = ligand_pdbs\MBI.pdb
REMARK  5 active torsions:
REMARK  status: ('A' for Active; 'I' for Inactive)
REMARK    1  A    between atoms: C08_8  and  N09_9
REMARK    2  A    between atoms: N12_12  and  C15_15
REMARK    3  A    between atoms: C16_16  and  N17_17
REMARK    4  A    between atoms: C18_18  and  C20_20
REMARK    5  A    between atoms: C28_28  and  C31_31
REMARK                            x       y       z     vdW  Elec       q    Type
REMARK                         _______ _______ _______ _____ _____    ______ ____
ROOT
ATOM      1  C15 MBI C1115      25.637   4.463   4.257  0.00  0.00    +0.000 A 
ATOM      2  C16 MBI C1115      26.687   5.164   4.889  0.00  0.00    +0.000 A 
ATOM      3  C27 MBI C1115      26.547   6.494   5.235  0.00  0.00    +0.000 A 
ATOM      4  C28 MBI C1115      25.349   7.148   4.943  0.00  0.00    +0.000 A 
ATOM      5  C29 MBI C1115      24.301   6.471   4.307  0.00  0.00    +0.000 A 
ATOM      6  C30 MBI C1115      24.440   5.126   3.962  0.00  0.00    +0.000 A 
ENDROOT
BRANCH   1  10
ATOM      7  N09 MBI C1115      26.657   0.364   3.759  0.00  0.00    +0.000 N 
ATOM      8  C10 MBI C1115      27.209   1.262   2.748  0.00  0.00    +0.000 C 
ATOM      9  C11 MBI C1115      27.098   2.756   3.117  0.00  0.00    +0.000 C 
ATOM     10  N12 MBI C1115      25.904   3.032   3.917  0.00  0.00    +0.000 N 
ATOM     11  C13 MBI C1115      25.777   2.182   5.118  0.00  0.00    +0.000 C 
ATOM     12  C14 MBI C1115      26.634   0.915   5.106  0.00  0.00    +0.000 C 
BRANCH   7  20
ATOM     13  C01 MBI C1115      24.906  -2.280   3.704  0.00  0.00    +0.000 C 
ATOM     14  C02 MBI C1115      26.438  -2.189   3.657  0.00  0.00    +0.000 A 
ATOM     15  C03 MBI C1115      27.076  -3.419   3.601  0.00  0.00    +0.000 A 
ATOM     16  C04 MBI C1115      28.462  -3.483   3.585  0.00  0.00    +0.000 A 
ATOM     17  C05 MBI C1115      29.194  -2.305   3.628  0.00  0.00    +0.000 A 
ATOM     18 CL6  MBI C1115      30.959  -2.403   3.593  0.00  0.00    +0.000 Cl
ATOM     19  C07 MBI C1115      28.574  -1.064   3.679  0.00  0.00    +0.000 A 
ATOM     20  C08 MBI C1115      27.200  -0.991   3.694  0.00  0.00    +0.000 A 
ENDBRANCH   7  20
ENDBRANCH   1  10
BRANCH   2  21
ATOM     21  N17 MBI C1115      27.907   4.390   5.177  0.00  0.00    +0.000 NA
ATOM     22  C18 MBI C1115      28.158   3.519   6.335  0.00  0.00    +0.000 C 
ATOM     23  O19 MBI C1115      27.304   3.348   7.160  0.00  0.00    +0.000 OA
BRANCH  22  24
ATOM     24  C20 MBI C1115      29.561   2.843   6.417  0.00  0.00    +0.000 A 
ATOM     25  C21 MBI C1115      29.608   1.513   6.821  0.00  0.00    +0.000 A 
ATOM     26  C22 MBI C1115      30.821   0.841   6.919  0.00  0.00    +0.000 A 
ATOM     27  C23 MBI C1115      32.045   1.456   6.639  0.00  0.00    +0.000 A 
ATOM     28 BR1  MBI C1115      33.720   0.367   6.812  0.00  0.00    +0.000 Br
ATOM     29  C25 MBI C1115      31.990   2.814   6.230  0.00  0.00    +0.000 A 
ATOM     30  C26 MBI C1115      30.774   3.499   6.124  0.00  0.00    +0.000 A 
ENDBRANCH  22  24
ENDBRANCH   2  21
BRANCH   4  31
ATOM     31  C31 MBI C1115      25.226   8.630   5.327  0.00  0.00    +0.000 C 
ATOM     32  O32 MBI C1115      24.728   8.969   6.443  0.00  0.00    +0.000 OA
ATOM     33  O33 MBI C1115      25.648   9.500   4.506  0.00  0.00    +0.000 OA
ENDBRANCH   4  31
TORSDOF 5
ENDMDL
