MODEL 1
REMARK VINA RESULT:      -5.0      0.000      0.000
REMARK  Name = ligand_pdbs\MES.pdb
REMARK  3 active torsions:
REMARK  status: ('A' for Active; 'I' for Inactive)
REMARK    1  A    between atoms: N4_4  and  C7_7
REMARK    2  A    between atoms: C7_7  and  C8_8
REMARK    3  A    between atoms: C8_8  and  S_9
REMARK                            x       y       z     vdW  Elec       q    Type
REMARK                         _______ _______ _______ _____ _____    ______ ____
ROOT
ATOM      1  O1  MES A 304      24.634   6.864   4.334  0.00  0.00    +0.000 OA
ATOM      2  C2  MES A 304      24.357   5.488   4.703  0.00  0.00    +0.000 C 
ATOM      3  C3  MES A 304      25.527   4.641   4.419  0.00  0.00    +0.000 C 
ATOM      4  N4  MES A 304      26.681   5.117   5.239  0.00  0.00    +0.000 NA
ATOM      5  C5  MES A 304      26.986   6.534   4.910  0.00  0.00    +0.000 C 
ATOM      6  C6  MES A 304      25.717   7.381   5.147  0.00  0.00    +0.000 C 
ENDROOT
BRANCH   4   7
ATOM      7  C7  MES A 304      27.902   4.303   5.000  0.00  0.00    +0.000 C 
BRANCH   7   8
ATOM      8  C8  MES A 304      28.196   3.347   6.173  0.00  0.00    +0.000 C 
BRANCH   8   9
ATOM      9  S   MES A 304      29.360   2.059   5.639  0.00  0.00    +0.000 S 
ATOM     10  O1S MES A 304      30.719   2.569   5.739  0.00  0.00    +0.000 OA
ATOM     11  O2S MES A 304      29.084   1.708   4.256  0.00  0.00    +0.000 OA
ATOM     12  O3S MES A 304      29.220   0.890   6.492  0.00  0.00    +0.000 OA
ENDBRANCH   8   9
ENDBRANCH   7   8
ENDBRANCH   4   7
TORSDOF 3
ENDMDL
MODEL 2
REMARK VINA RESULT:      -5.0      0.972      1.655
REMARK  Name = ligand_pdbs\MES.pdb
REMARK  3 active torsions:
REMARK  status: ('A' for Active; 'I' for Inactive)
REMARK    1  A    between atoms: N4_4  and  C7_7
REMARK    2  A    between atoms: C7_7  and  C8_8
REMARK    3  A    between atoms: C8_8  and  S_9
REMARK                            x       y       z     vdW  Elec       q    Type
REMARK                         _______ _______ _______ _____ _____    ______ ____
ROOT
ATOM      1  O1  MES A 304      24.425   6.281   4.591  0.00  0.00    +0.000 OA
ATOM      2  C2  MES A 304      25.785   6.149   4.100  0.00  0.00    +0.000 C 
ATOM      3  C3  MES A 304      26.596   5.378   5.056  0.00  0.00    +0.000 C 
ATOM      4  N4  MES A 304      26.016   4.008   5.190  0.00  0.00    +0.000 NA
ATOM      5  C5  MES A 304      24.612   4.096   5.669  0.00  0.00    +0.000 C 
ATOM      6  C6  MES A 304      23.808   4.973   4.686  0.00  0.00    +0.000 C 
ENDROOT
BRANCH   4   7
ATOM      7  C7  MES A 304      26.790   3.171   6.145  0.00  0.00    +0.000 C 
BRANCH   7   8
ATOM      8  C8  MES A 304      28.278   3.571   6.188  0.00  0.00    +0.000 C 
BRANCH   8   9
ATOM      9  S   MES A 304      29.304   2.186   5.618  0.00  0.00    +0.000 S 
ATOM     10  O1S MES A 304      30.708   2.553   5.724  0.00  0.00    +0.000 OA
ATOM     11  O2S MES A 304      28.991   1.898   4.228  0.00  0.00    +0.000 OA
ATOM     12  O3S MES A 304      29.048   1.016   6.443  0.00  0.00    +0.000 OA
ENDBRANCH   8   9
ENDBRANCH   7   8
ENDBRANCH   4   7
TORSDOF 3
ENDMDL
MODEL 3
REMARK VINA RESULT:      -4.9      2.607      5.258
REMARK  Name = ligand_pdbs\MES.pdb
REMARK  3 active torsions:
REMARK  status: ('A' for Active; 'I' for Inactive)
REMARK    1  A    between atoms: N4_4  and  C7_7
REMARK    2  A    between atoms: C7_7  and  C8_8
REMARK    3  A    between atoms: C8_8  and  S_9
REMARK                            x       y       z     vdW  Elec       q    Type
REMARK                         _______ _______ _______ _____ _____    ______ ____
ROOT
ATOM      1  O1  MES A 304      27.539   1.414   5.483  0.00  0.00    +0.000 OA
ATOM      2  C2  MES A 304      27.904   1.558   4.086  0.00  0.00    +0.000 C 
ATOM      3  C3  MES A 304      27.386   2.830   3.555  0.00  0.00    +0.000 C 
ATOM      4  N4  MES A 304      28.002   3.960   4.314  0.00  0.00    +0.000 NA
ATOM      5  C5  MES A 304      27.672   3.839   5.758  0.00  0.00    +0.000 C 
ATOM      6  C6  MES A 304      28.162   2.465   6.264  0.00  0.00    +0.000 C 
ENDROOT
BRANCH   4   7
ATOM      7  C7  MES A 304      27.520   5.280   3.827  0.00  0.00    +0.000 C 
BRANCH   7   8
ATOM      8  C8  MES A 304      27.105   6.205   4.988  0.00  0.00    +0.000 C 
BRANCH   8   9
ATOM      9  S   MES A 304      25.399   6.775   4.740  0.00  0.00    +0.000 S 
ATOM     10  O1S MES A 304      25.209   7.125   3.341  0.00  0.00    +0.000 OA
ATOM     11  O2S MES A 304      25.163   7.951   5.561  0.00  0.00    +0.000 OA
ATOM     12  O3S MES A 304      24.472   5.716   5.103  0.00  0.00    +0.000 OA
ENDBRANCH   8   9
ENDBRANCH   7   8
ENDBRANCH   4   7
TORSDOF 3
ENDMDL
MODEL 4
REMARK VINA RESULT:      -4.8      2.959      5.692
REMARK  Name = ligand_pdbs\MES.pdb
REMARK  3 active torsions:
REMARK  status: ('A' for Active; 'I' for Inactive)
REMARK    1  A    between atoms: N4_4  and  C7_7
REMARK    2  A    between atoms: C7_7  and  C8_8
REMARK    3  A    between atoms: C8_8  and  S_9
REMARK                            x       y       z     vdW  Elec       q    Type
REMARK                         _______ _______ _______ _____ _____    ______ ____
ROOT
ATOM      1  O1  MES A 304      29.487  -0.375   5.232  0.00  0.00    +0.000 OA
ATOM      2  C2  MES A 304      30.021   0.460   6.292  0.00  0.00    +0.000 C 
ATOM      3  C3  MES A 304      29.474   1.823   6.188  0.00  0.00    +0.000 C 
ATOM      4  N4  MES A 304      27.990   1.764   6.348  0.00  0.00    +0.000 NA
ATOM      5  C5  MES A 304      27.402   0.897   5.294  0.00  0.00    +0.000 C 
ATOM      6  C6  MES A 304      28.050  -0.501   5.382  0.00  0.00    +0.000 C 
ENDROOT
BRANCH   4   7
ATOM      7  C7  MES A 304      27.370   3.112   6.254  0.00  0.00    +0.000 C 
BRANCH   7   8
ATOM      8  C8  MES A 304      28.062   3.991   5.193  0.00  0.00    +0.000 C 
BRANCH   8   9
ATOM      9  S   MES A 304      26.977   5.375   4.739  0.00  0.00    +0.000 S 
ATOM     10  O1S MES A 304      25.709   5.239   5.438  0.00  0.00    +0.000 OA
ATOM     11  O2S MES A 304      26.737   5.344   3.306  0.00  0.00    +0.000 OA
ATOM     12  O3S MES A 304      27.604   6.631   5.116  0.00  0.00    +0.000 OA
ENDBRANCH   8   9
ENDBRANCH   7   8
ENDBRANCH   4   7
TORSDOF 3
ENDMDL
MODEL 5
REMARK VINA RESULT:      -4.8      3.051      5.219
REMARK  Name = ligand_pdbs\MES.pdb
REMARK  3 active torsions:
REMARK  status: ('A' for Active; 'I' for Inactive)
REMARK    1  A    between atoms: N4_4  and  C7_7
REMARK    2  A    between atoms: C7_7  and  C8_8
REMARK    3  A    between atoms: C8_8  and  S_9
REMARK                            x       y       z     vdW  Elec       q    Type
REMARK                         _______ _______ _______ _____ _____    ______ ____
ROOT
ATOM      1  O1  MES A 304      26.655  -0.605   5.331  0.00  0.00    +0.000 OA
ATOM      2  C2  MES A 304      26.146   0.406   4.423  0.00  0.00    +0.000 C 
ATOM      3  C3  MES A 304      26.367   1.749   4.984  0.00  0.00    +0.000 C 
ATOM      4  N4  MES A 304      27.835   1.971   5.148  0.00  0.00    +0.000 NA
ATOM      5  C5  MES A 304      28.404   0.940   6.056  0.00  0.00    +0.000 C 
ATOM      6  C6  MES A 304      28.090  -0.456   5.478  0.00  0.00    +0.000 C 
ENDROOT
BRANCH   4   7
ATOM      7  C7  MES A 304      28.132   3.314   5.713  0.00  0.00    +0.000 C 
BRANCH   7   8
ATOM      8  C8  MES A 304      26.871   4.198   5.790  0.00  0.00    +0.000 C 
BRANCH   8   9
ATOM      9  S   MES A 304      26.990   5.544   4.576  0.00  0.00    +0.000 S 
ATOM     10  O1S MES A 304      27.826   5.116   3.466  0.00  0.00    +0.000 OA
ATOM     11  O2S MES A 304      27.593   6.706   5.208  0.00  0.00    +0.000 OA
ATOM     12  O3S MES A 304      25.663   5.874   4.082  0.00  0.00    +0.000 OA
ENDBRANCH   8   9
ENDBRANCH   7   8
ENDBRANCH   4   7
TORSDOF 3
ENDMDL
MODEL 6
REMARK VINA RESULT:      -4.7      3.000      5.355
REMARK  Name = ligand_pdbs\MES.pdb
REMARK  3 active torsions:
REMARK  status: ('A' for Active; 'I' for Inactive)
REMARK    1  A    between atoms: N4_4  and  C7_7
REMARK    2  A    between atoms: C7_7  and  C8_8
REMARK    3  A    between atoms: C8_8  and  S_9
REMARK                            x       y       z     vdW  Elec       q    Type
REMARK                         _______ _______ _______ _____ _____    ______ ____
ROOT
ATOM      1  O1  MES A 304      29.244   0.137   6.543  0.00  0.00    +0.000 OA
ATOM      2  C2  MES A 304      28.488  -0.309   5.386  0.00  0.00    +0.000 C 
ATOM      3  C3  MES A 304      27.656   0.791   4.869  0.00  0.00    +0.000 C 
ATOM      4  N4  MES A 304      28.546   1.910   4.437  0.00  0.00    +0.000 NA
ATOM      5  C5  MES A 304      29.358   2.384   5.588  0.00  0.00    +0.000 C 
ATOM      6  C6  MES A 304      30.159   1.192   6.153  0.00  0.00    +0.000 C 
ENDROOT
BRANCH   4   7
ATOM      7  C7  MES A 304      27.768   3.059   3.902  0.00  0.00    +0.000 C 
BRANCH   7   8
ATOM      8  C8  MES A 304      26.277   2.973   4.282  0.00  0.00    +0.000 C 
BRANCH   8   9
ATOM      9  S   MES A 304      25.910   4.165   5.602  0.00  0.00    +0.000 S 
ATOM     10  O1S MES A 304      26.687   5.375   5.385  0.00  0.00    +0.000 OA
ATOM     11  O2S MES A 304      26.275   3.586   6.884  0.00  0.00    +0.000 OA
ATOM     12  O3S MES A 304      24.493   4.492   5.584  0.00  0.00    +0.000 OA
ENDBRANCH   8   9
ENDBRANCH   7   8
ENDBRANCH   4   7
TORSDOF 3
ENDMDL
MODEL 7
REMARK VINA RESULT:      -4.7      2.852      5.480
REMARK  Name = ligand_pdbs\MES.pdb
REMARK  3 active torsions:
REMARK  status: ('A' for Active; 'I' for Inactive)
REMARK    1  A    between atoms: N4_4  and  C7_7
REMARK    2  A    between atoms: C7_7  and  C8_8
REMARK    3  A    between atoms: C8_8  and  S_9
REMARK                            x       y       z     vdW  Elec       q    Type
REMARK                         _______ _______ _______ _____ _____    ______ ____
ROOT
ATOM      1  O1  MES A 304      28.885  -0.112   5.155  0.00  0.00    +0.000 OA
ATOM      2  C2  MES A 304      29.067   0.219   3.753  0.00  0.00    +0.000 C 
ATOM      3  C3  MES A 304      27.998   1.127   3.304  0.00  0.00    +0.000 C 
ATOM      4  N4  MES A 304      28.074   2.393   4.093  0.00  0.00    +0.000 NA
ATOM      5  C5  MES A 304      27.915   2.098   5.541  0.00  0.00    +0.000 C 
ATOM      6  C6  MES A 304      29.003   1.086   5.962  0.00  0.00    +0.000 C 
ENDROOT
BRANCH   4   7
ATOM      7  C7  MES A 304      27.018   3.360   3.690  0.00  0.00    +0.000 C 
BRANCH   7   8
ATOM      8  C8  MES A 304      27.575   4.788   3.530  0.00  0.00    +0.000 C 
BRANCH   8   9
ATOM      9  S   MES A 304      26.695   5.919   4.645  0.00  0.00    +0.000 S 
ATOM     10  O1S MES A 304      25.720   6.683   3.882  0.00  0.00    +0.000 OA
ATOM     11  O2S MES A 304      27.649   6.834   5.250  0.00  0.00    +0.000 OA
ATOM     12  O3S MES A 304      26.010   5.155   5.675  0.00  0.00    +0.000 OA
ENDBRANCH   8   9
ENDBRANCH   7   8
ENDBRANCH   4   7
TORSDOF 3
ENDMDL
MODEL 8
REMARK VINA RESULT:      -4.7      4.031      5.951
REMARK  Name = ligand_pdbs\MES.pdb
REMARK  3 active torsions:
REMARK  status: ('A' for Active; 'I' for Inactive)
REMARK    1  A    between atoms: N4_4  and  C7_7
REMARK    2  A    between atoms: C7_7  and  C8_8
REMARK    3  A    between atoms: C8_8  and  S_9
REMARK                            x       y       z     vdW  Elec       q    Type
REMARK                         _______ _______ _______ _____ _____    ______ ____
ROOT
ATOM      1  O1  MES A 304      27.385  -2.188   3.957  0.00  0.00    +0.000 OA
ATOM      2  C2  MES A 304      28.823  -2.064   3.801  0.00  0.00    +0.000 C 
ATOM      3  C3  MES A 304      29.187  -0.657   3.564  0.00  0.00    +0.000 C 
ATOM      4  N4  MES A 304      28.778   0.156   4.748  0.00  0.00    +0.000 NA
ATOM      5  C5  MES A 304      27.312   0.039   4.960  0.00  0.00    +0.000 C 
ATOM      6  C6  MES A 304      26.954  -1.453   5.130  0.00  0.00    +0.000 C 
ENDROOT
BRANCH   4   7
ATOM      7  C7  MES A 304      29.118   1.593   4.575  0.00  0.00    +0.000 C 
BRANCH   7   8
ATOM      8  C8  MES A 304      27.927   2.405   4.029  0.00  0.00    +0.000 C 
BRANCH   8   9
ATOM      9  S   MES A 304      27.588   3.812   5.125  0.00  0.00    +0.000 S 
ATOM     10  O1S MES A 304      27.983   5.044   4.461  0.00  0.00    +0.000 OA
ATOM     11  O2S MES A 304      28.359   3.663   6.349  0.00  0.00    +0.000 OA
ATOM     12  O3S MES A 304      26.167   3.863   5.430  0.00  0.00    +0.000 OA
ENDBRANCH   8   9
ENDBRANCH   7   8
ENDBRANCH   4   7
TORSDOF 3
ENDMDL
MODEL 9
REMARK VINA RESULT:      -4.7      2.690      3.283
REMARK  Name = ligand_pdbs\MES.pdb
REMARK  3 active torsions:
REMARK  status: ('A' for Active; 'I' for Inactive)
REMARK    1  A    between atoms: N4_4  and  C7_7
REMARK    2  A    between atoms: C7_7  and  C8_8
REMARK    3  A    between atoms: C8_8  and  S_9
REMARK                            x       y       z     vdW  Elec       q    Type
REMARK                         _______ _______ _______ _____ _____    ______ ____
ROOT
ATOM      1  O1  MES A 304      24.296   6.270   4.791  0.00  0.00    +0.000 OA
ATOM      2  C2  MES A 304      25.496   6.429   3.992  0.00  0.00    +0.000 C 
ATOM      3  C3  MES A 304      26.533   5.484   4.439  0.00  0.00    +0.000 C 
ATOM      4  N4  MES A 304      26.033   4.090   4.250  0.00  0.00    +0.000 NA
ATOM      5  C5  MES A 304      24.787   3.888   5.035  0.00  0.00    +0.000 C 
ATOM      6  C6  MES A 304      23.748   4.941   4.595  0.00  0.00    +0.000 C 
ENDROOT
BRANCH   4   7
ATOM      7  C7  MES A 304      27.034   3.080   4.683  0.00  0.00    +0.000 C 
BRANCH   7   8
ATOM      8  C8  MES A 304      27.566   2.249   3.498  0.00  0.00    +0.000 C 
BRANCH   8   9
ATOM      9  S   MES A 304      26.452   0.851   3.179  0.00  0.00    +0.000 S 
ATOM     10  O1S MES A 304      25.839   0.431   4.429  0.00  0.00    +0.000 OA
ATOM     11  O2S MES A 304      27.219  -0.255   2.630  0.00  0.00    +0.000 OA
ATOM     12  O3S MES A 304      25.415   1.256   2.244  0.00  0.00    +0.000 OA
ENDBRANCH   8   9
ENDBRANCH   7   8
ENDBRANCH   4   7
TORSDOF 3
ENDMDL
