MODEL 1
REMARK VINA RESULT:      -1.5      0.000      0.000
REMARK  Name = ligand_pdbs\MG.pdb
REMARK  0 active torsions:
REMARK  status: ('A' for Active; 'I' for Inactive)
REMARK                            x       y       z     vdW  Elec       q    Type
REMARK                         _______ _______ _______ _____ _____    ______ ____
ROOT
ATOM      1 MG   MG  A 251      19.552   9.566   0.526  0.00  0.00    +0.000 Mg
ENDROOT
TORSDOF 0
ENDMDL
MODEL 2
REMARK VINA RESULT:      -1.4      6.027      6.027
REMARK  Name = ligand_pdbs\MG.pdb
REMARK  0 active torsions:
REMARK  status: ('A' for Active; 'I' for Inactive)
REMARK                            x       y       z     vdW  Elec       q    Type
REMARK                         _______ _______ _______ _____ _____    ______ ____
ROOT
ATOM      1 MG   MG  A 251      22.483   9.267   5.784  0.00  0.00    +0.000 Mg
ENDROOT
TORSDOF 0
ENDMDL
MODEL 3
REMARK VINA RESULT:      -1.3     17.753     17.753
REMARK  Name = ligand_pdbs\MG.pdb
REMARK  0 active torsions:
REMARK  status: ('A' for Active; 'I' for Inactive)
REMARK                            x       y       z     vdW  Elec       q    Type
REMARK                         _______ _______ _______ _____ _____    ______ ____
ROOT
ATOM      1 MG   MG  A 251      21.254  -7.988  -1.503  0.00  0.00    +0.000 Mg
ENDROOT
TORSDOF 0
ENDMDL
MODEL 4
REMARK VINA RESULT:      -1.1      7.125      7.125
REMARK  Name = ligand_pdbs\MG.pdb
REMARK  0 active torsions:
REMARK  status: ('A' for Active; 'I' for Inactive)
REMARK                            x       y       z     vdW  Elec       q    Type
REMARK                         _______ _______ _______ _____ _____    ______ ____
ROOT
ATOM      1 MG   MG  A 251      15.399   4.633   3.558  0.00  0.00    +0.000 Mg
ENDROOT
TORSDOF 0
ENDMDL
MODEL 5
REMARK VINA RESULT:      -1.1     14.906     14.906
REMARK  Name = ligand_pdbs\MG.pdb
REMARK  0 active torsions:
REMARK  status: ('A' for Active; 'I' for Inactive)
REMARK                            x       y       z     vdW  Elec       q    Type
REMARK                         _______ _______ _______ _____ _____    ______ ____
ROOT
ATOM      1 MG   MG  A 251      31.320   0.526   1.926  0.00  0.00    +0.000 Mg
ENDROOT
TORSDOF 0
ENDMDL
MODEL 6
REMARK VINA RESULT:      -1.1     12.815     12.815
REMARK  Name = ligand_pdbs\MG.pdb
REMARK  0 active torsions:
REMARK  status: ('A' for Active; 'I' for Inactive)
REMARK                            x       y       z     vdW  Elec       q    Type
REMARK                         _______ _______ _______ _____ _____    ______ ____
ROOT
ATOM      1 MG   MG  A 251      27.414  12.418  10.235  0.00  0.00    +0.000 Mg
ENDROOT
TORSDOF 0
ENDMDL
MODEL 7
REMARK VINA RESULT:      -1.0     12.839     12.839
REMARK  Name = ligand_pdbs\MG.pdb
REMARK  0 active torsions:
REMARK  status: ('A' for Active; 'I' for Inactive)
REMARK                            x       y       z     vdW  Elec       q    Type
REMARK                         _______ _______ _______ _____ _____    ______ ____
ROOT
ATOM      1 MG   MG  A 251      18.897   0.280   9.368  0.00  0.00    +0.000 Mg
ENDROOT
TORSDOF 0
ENDMDL
MODEL 8
REMARK VINA RESULT:      -1.0      6.947      6.947
REMARK  Name = ligand_pdbs\MG.pdb
REMARK  0 active torsions:
REMARK  status: ('A' for Active; 'I' for Inactive)
REMARK                            x       y       z     vdW  Elec       q    Type
REMARK                         _______ _______ _______ _____ _____    ______ ____
ROOT
ATOM      1 MG   MG  A 251      25.723  10.861   3.442  0.00  0.00    +0.000 Mg
ENDROOT
TORSDOF 0
ENDMDL
MODEL 9
REMARK VINA RESULT:      -1.0      7.199      7.199
REMARK  Name = ligand_pdbs\MG.pdb
REMARK  0 active torsions:
REMARK  status: ('A' for Active; 'I' for Inactive)
REMARK                            x       y       z     vdW  Elec       q    Type
REMARK                         _______ _______ _______ _____ _____    ______ ____
ROOT
ATOM      1 MG   MG  A 251      24.669  10.578   5.488  0.00  0.00    +0.000 Mg
ENDROOT
TORSDOF 0
ENDMDL
