MODEL 1
REMARK VINA RESULT:      -4.4      0.000      0.000
REMARK  Name = ligand_pdbs\MI8.pdb
REMARK  14 active torsions:
REMARK  status: ('A' for Active; 'I' for Inactive)
REMARK    1  A    between atoms: C2_2  and  C5_4
REMARK    2  A    between atoms: C27_8  and  O4_9
REMARK    3  A    between atoms: C27_8  and  C26_11
REMARK    4  A    between atoms: C26_11  and  C25_12
REMARK    5  A    between atoms: C25_12  and  C24_13
REMARK    6  A    between atoms: C24_13  and  C23_14
REMARK    7  A    between atoms: C23_14  and  C22_16
REMARK    8  A    between atoms: C21_17  and  C19_18
REMARK    9  A    between atoms: C17_20  and  C16_21
REMARK   10  A    between atoms: C16_21  and  C15_23
REMARK   11  A    between atoms: C15_23  and  C13_24
REMARK   12  A    between atoms: C12_26  and  C11_27
REMARK   13  A    between atoms: C10_28  and  C9_29
REMARK   14  A    between atoms: C9_29  and  C3_31
REMARK                            x       y       z     vdW  Elec       q    Type
REMARK                         _______ _______ _______ _____ _____    ______ ____
ROOT
ATOM      1  C15 MI8 C1124      28.156   5.784   4.243  0.00  0.00    +0.000 C 
ENDROOT
BRANCH   1   2
ATOM      2  C13 MI8 C1124      28.172   4.286   4.471  0.00  0.00    +0.000 C 
ATOM      3  C14 MI8 C1124      27.615   3.371   3.404  0.00  0.00    +0.000 C 
ATOM      4  C12 MI8 C1124      28.656   3.801   5.633  0.00  0.00    +0.000 C 
BRANCH   4   5
ATOM      5  C11 MI8 C1124      28.654   2.364   5.927  0.00  0.00    +0.000 C 
ATOM      6  C10 MI8 C1124      29.769   1.662   5.790  0.00  0.00    +0.000 C 
BRANCH   6   7
ATOM      7  C9  MI8 C1124      29.848   0.183   6.097  0.00  0.00    +0.000 C 
ATOM      8  N   MI8 C1124      29.829   0.024   7.564  0.00  0.00    +0.000 NA
BRANCH   7  12
ATOM      9  C2  MI8 C1124      26.395  -0.350   4.763  0.00  0.00    +0.000 C 
ATOM     10  C4  MI8 C1124      29.057  -1.360   4.251  0.00  0.00    +0.000 C 
ATOM     11  C8  MI8 C1124      26.844  -0.216   2.248  0.00  0.00    +0.000 C 
ATOM     12  C3  MI8 C1124      28.654  -0.563   5.488  0.00  0.00    +0.000 C 
ATOM     13  C   MI8 C1124      27.849  -2.087   3.669  0.00  0.00    +0.000 C 
ATOM     14  O1  MI8 C1124      27.493  -3.152   4.583  0.00  0.00    +0.000 OA
ATOM     15  C1  MI8 C1124      26.662  -1.137   3.463  0.00  0.00    +0.000 C 
ATOM     16  O   MI8 C1124      27.592   0.346   5.119  0.00  0.00    +0.000 OA
BRANCH   9  17
ATOM     17  C5  MI8 C1124      25.162   0.545   4.657  0.00  0.00    +0.000 C 
ATOM     18  C6  MI8 C1124      25.231   1.876   4.662  0.00  0.00    +0.000 C 
ATOM     19  C7  MI8 C1124      23.975   2.702   4.572  0.00  0.00    +0.000 C 
ENDBRANCH   9  17
ENDBRANCH   7  12
ENDBRANCH   6   7
ENDBRANCH   4   5
ENDBRANCH   1   2
BRANCH   1  20
ATOM     20  C16 MI8 C1124      27.173   6.348   5.270  0.00  0.00    +0.000 C 
ATOM     21  C18 MI8 C1124      27.681   7.684   5.797  0.00  0.00    +0.000 C 
BRANCH  20  24
ATOM     22  C19 MI8 C1124      24.933   7.557   5.065  0.00  0.00    +0.000 C 
ATOM     23  C20 MI8 C1124      23.618   7.472   4.339  0.00  0.00    +0.000 C 
ATOM     24  C17 MI8 C1124      25.768   6.533   4.738  0.00  0.00    +0.000 C 
BRANCH  22  26
ATOM     25  C22 MI8 C1124      24.266   9.359   6.688  0.00  0.00    +0.000 C 
ATOM     26  C21 MI8 C1124      25.228   8.635   6.072  0.00  0.00    +0.000 C 
BRANCH  25  27
ATOM     27  C23 MI8 C1124      24.549  10.425   7.743  0.00  0.00    +0.000 C 
ATOM     28  O2  MI8 C1124      25.385   9.857   8.739  0.00  0.00    +0.000 OA
BRANCH  27  29
ATOM     29  C24 MI8 C1124      23.274  10.899   8.486  0.00  0.00    +0.000 C 
BRANCH  29  31
ATOM     30  N1  MI8 C1124      24.012  13.017   7.590  0.00  0.00    +0.000 NA
ATOM     31  C25 MI8 C1124      23.017  12.424   8.500  0.00  0.00    +0.000 C 
BRANCH  31  32
ATOM     32  C26 MI8 C1124      23.159  13.081   9.897  0.00  0.00    +0.000 C 
BRANCH  32  34
ATOM     33  O3  MI8 C1124      25.433  12.799  10.545  0.00  0.00    +0.000 OA
ATOM     34  C27 MI8 C1124      24.278  12.527  10.800  0.00  0.00    +0.000 C 
BRANCH  34  35
ATOM     35  O4  MI8 C1124      24.081  11.642  11.964  0.00  0.00    +0.000 OA
ATOM     36  C28 MI8 C1124      22.773  11.216  12.377  0.00  0.00    +0.000 C 
ENDBRANCH  34  35
ENDBRANCH  32  34
ENDBRANCH  31  32
ENDBRANCH  29  31
ENDBRANCH  27  29
ENDBRANCH  25  27
ENDBRANCH  22  26
ENDBRANCH  20  24
ENDBRANCH   1  20
TORSDOF 14
ENDMDL
MODEL 2
REMARK VINA RESULT:      -4.1      3.173      9.202
REMARK  Name = ligand_pdbs\MI8.pdb
REMARK  14 active torsions:
REMARK  status: ('A' for Active; 'I' for Inactive)
REMARK    1  A    between atoms: C2_2  and  C5_4
REMARK    2  A    between atoms: C27_8  and  O4_9
REMARK    3  A    between atoms: C27_8  and  C26_11
REMARK    4  A    between atoms: C26_11  and  C25_12
REMARK    5  A    between atoms: C25_12  and  C24_13
REMARK    6  A    between atoms: C24_13  and  C23_14
REMARK    7  A    between atoms: C23_14  and  C22_16
REMARK    8  A    between atoms: C21_17  and  C19_18
REMARK    9  A    between atoms: C17_20  and  C16_21
REMARK   10  A    between atoms: C16_21  and  C15_23
REMARK   11  A    between atoms: C15_23  and  C13_24
REMARK   12  A    between atoms: C12_26  and  C11_27
REMARK   13  A    between atoms: C10_28  and  C9_29
REMARK   14  A    between atoms: C9_29  and  C3_31
REMARK                            x       y       z     vdW  Elec       q    Type
REMARK                         _______ _______ _______ _____ _____    ______ ____
ROOT
ATOM      1  C15 MI8 C1124      26.147  -0.858   3.131  0.00  0.00    +0.000 C 
ENDROOT
BRANCH   1   2
ATOM      2  C13 MI8 C1124      25.526   0.204   4.015  0.00  0.00    +0.000 C 
ATOM      3  C14 MI8 C1124      25.967   0.313   5.456  0.00  0.00    +0.000 C 
ATOM      4  C12 MI8 C1124      24.571   1.009   3.507  0.00  0.00    +0.000 C 
BRANCH   4   5
ATOM      5  C11 MI8 C1124      23.902   2.023   4.330  0.00  0.00    +0.000 C 
ATOM      6  C10 MI8 C1124      24.375   3.261   4.362  0.00  0.00    +0.000 C 
BRANCH   6   7
ATOM      7  C9  MI8 C1124      23.725   4.364   5.168  0.00  0.00    +0.000 C 
ATOM      8  N   MI8 C1124      24.082   4.160   6.585  0.00  0.00    +0.000 NA
BRANCH   7  12
ATOM      9  C2  MI8 C1124      24.901   7.904   5.439  0.00  0.00    +0.000 C 
ATOM     10  C4  MI8 C1124      25.395   5.618   3.736  0.00  0.00    +0.000 C 
ATOM     11  C8  MI8 C1124      27.430   7.569   5.245  0.00  0.00    +0.000 C 
ATOM     12  C3  MI8 C1124      24.227   5.739   4.709  0.00  0.00    +0.000 C 
ATOM     13  C   MI8 C1124      25.872   7.000   3.301  0.00  0.00    +0.000 C 
ATOM     14  O1  MI8 C1124      24.853   7.568   2.443  0.00  0.00    +0.000 OA
ATOM     15  C1  MI8 C1124      26.130   7.915   4.505  0.00  0.00    +0.000 C 
ATOM     16  O   MI8 C1124      24.647   6.552   5.829  0.00  0.00    +0.000 OA
BRANCH   9  17
ATOM     17  C5  MI8 C1124      25.054   8.872   6.610  0.00  0.00    +0.000 C 
ATOM     18  C6  MI8 C1124      24.099   9.729   6.969  0.00  0.00    +0.000 C 
ATOM     19  C7  MI8 C1124      24.319  10.672   8.123  0.00  0.00    +0.000 C 
ENDBRANCH   9  17
ENDBRANCH   7  12
ENDBRANCH   6   7
ENDBRANCH   4   5
ENDBRANCH   1   2
BRANCH   1  20
ATOM     20  C16 MI8 C1124      27.354  -1.388   3.905  0.00  0.00    +0.000 C 
ATOM     21  C18 MI8 C1124      27.152  -2.860   4.242  0.00  0.00    +0.000 C 
BRANCH  20  24
ATOM     22  C19 MI8 C1124      29.393  -0.078   3.100  0.00  0.00    +0.000 C 
ATOM     23  C20 MI8 C1124      30.673  -0.260   2.330  0.00  0.00    +0.000 C 
ATOM     24  C17 MI8 C1124      28.671  -1.229   3.175  0.00  0.00    +0.000 C 
BRANCH  22  26
ATOM     25  C22 MI8 C1124      28.113   2.086   3.021  0.00  0.00    +0.000 C 
ATOM     26  C21 MI8 C1124      28.971   1.254   3.656  0.00  0.00    +0.000 C 
BRANCH  25  27
ATOM     27  C23 MI8 C1124      27.643   3.420   3.593  0.00  0.00    +0.000 C 
ATOM     28  O2  MI8 C1124      27.856   4.426   2.614  0.00  0.00    +0.000 OA
BRANCH  27  29
ATOM     29  C24 MI8 C1124      28.453   3.867   4.836  0.00  0.00    +0.000 C 
BRANCH  29  31
ATOM     30  N1  MI8 C1124      27.162   3.814   6.876  0.00  0.00    +0.000 NA
ATOM     31  C25 MI8 C1124      28.200   3.074   6.140  0.00  0.00    +0.000 C 
BRANCH  31  32
ATOM     32  C26 MI8 C1124      29.449   2.924   7.046  0.00  0.00    +0.000 C 
BRANCH  32  34
ATOM     33  O3  MI8 C1124      31.394   2.290   5.828  0.00  0.00    +0.000 OA
ATOM     34  C27 MI8 C1124      30.515   1.916   6.577  0.00  0.00    +0.000 C 
BRANCH  34  35
ATOM     35  O4  MI8 C1124      30.557   0.484   6.933  0.00  0.00    +0.000 OA
ATOM     36  C28 MI8 C1124      29.386  -0.346   6.869  0.00  0.00    +0.000 C 
ENDBRANCH  34  35
ENDBRANCH  32  34
ENDBRANCH  31  32
ENDBRANCH  29  31
ENDBRANCH  27  29
ENDBRANCH  25  27
ENDBRANCH  22  26
ENDBRANCH  20  24
ENDBRANCH   1  20
TORSDOF 14
ENDMDL
MODEL 3
REMARK VINA RESULT:      -4.1      1.859      3.391
REMARK  Name = ligand_pdbs\MI8.pdb
REMARK  14 active torsions:
REMARK  status: ('A' for Active; 'I' for Inactive)
REMARK    1  A    between atoms: C2_2  and  C5_4
REMARK    2  A    between atoms: C27_8  and  O4_9
REMARK    3  A    between atoms: C27_8  and  C26_11
REMARK    4  A    between atoms: C26_11  and  C25_12
REMARK    5  A    between atoms: C25_12  and  C24_13
REMARK    6  A    between atoms: C24_13  and  C23_14
REMARK    7  A    between atoms: C23_14  and  C22_16
REMARK    8  A    between atoms: C21_17  and  C19_18
REMARK    9  A    between atoms: C17_20  and  C16_21
REMARK   10  A    between atoms: C16_21  and  C15_23
REMARK   11  A    between atoms: C15_23  and  C13_24
REMARK   12  A    between atoms: C12_26  and  C11_27
REMARK   13  A    between atoms: C10_28  and  C9_29
REMARK   14  A    between atoms: C9_29  and  C3_31
REMARK                            x       y       z     vdW  Elec       q    Type
REMARK                         _______ _______ _______ _____ _____    ______ ____
ROOT
ATOM      1  C15 MI8 C1124      23.812   5.176   5.006  0.00  0.00    +0.000 C 
ENDROOT
BRANCH   1   2
ATOM      2  C13 MI8 C1124      24.366   3.766   4.962  0.00  0.00    +0.000 C 
ATOM      3  C14 MI8 C1124      25.138   3.241   6.150  0.00  0.00    +0.000 C 
ATOM      4  C12 MI8 C1124      24.185   3.020   3.852  0.00  0.00    +0.000 C 
BRANCH   4   5
ATOM      5  C11 MI8 C1124      24.740   1.667   3.737  0.00  0.00    +0.000 C 
ATOM      6  C10 MI8 C1124      25.741   1.435   2.899  0.00  0.00    +0.000 C 
BRANCH   6   7
ATOM      7  C9  MI8 C1124      26.379   0.072   2.745  0.00  0.00    +0.000 C 
ATOM      8  N   MI8 C1124      26.447  -0.234   1.303  0.00  0.00    +0.000 NA
BRANCH   7  12
ATOM      9  C2  MI8 C1124      29.301   1.209   4.782  0.00  0.00    +0.000 C 
ATOM     10  C4  MI8 C1124      28.165  -1.301   3.902  0.00  0.00    +0.000 C 
ATOM     11  C8  MI8 C1124      29.085  -0.337   6.809  0.00  0.00    +0.000 C 
ATOM     12  C3  MI8 C1124      27.795   0.066   3.335  0.00  0.00    +0.000 C 
ATOM     13  C   MI8 C1124      29.575  -1.273   4.482  0.00  0.00    +0.000 C 
ATOM     14  O1  MI8 C1124      30.505  -1.171   3.376  0.00  0.00    +0.000 OA
ATOM     15  C1  MI8 C1124      29.766  -0.101   5.453  0.00  0.00    +0.000 C 
ATOM     16  O   MI8 C1124      27.938   1.050   4.384  0.00  0.00    +0.000 OA
BRANCH   9  17
ATOM     17  C5  MI8 C1124      29.555   2.432   5.662  0.00  0.00    +0.000 C 
ATOM     18  C6  MI8 C1124      28.577   3.225   6.098  0.00  0.00    +0.000 C 
ATOM     19  C7  MI8 C1124      28.896   4.428   6.948  0.00  0.00    +0.000 C 
ENDBRANCH   9  17
ENDBRANCH   7  12
ENDBRANCH   6   7
ENDBRANCH   4   5
ENDBRANCH   1   2
BRANCH   1  20
ATOM     20  C16 MI8 C1124      24.593   5.960   3.951  0.00  0.00    +0.000 C 
ATOM     21  C18 MI8 C1124      23.840   7.233   3.584  0.00  0.00    +0.000 C 
BRANCH  20  24
ATOM     22  C19 MI8 C1124      26.336   7.419   5.115  0.00  0.00    +0.000 C 
ATOM     23  C20 MI8 C1124      27.812   7.481   5.396  0.00  0.00    +0.000 C 
ATOM     24  C17 MI8 C1124      25.999   6.328   4.375  0.00  0.00    +0.000 C 
BRANCH  22  26
ATOM     25  C22 MI8 C1124      25.107   8.738   6.870  0.00  0.00    +0.000 C 
ATOM     26  C21 MI8 C1124      25.385   8.493   5.568  0.00  0.00    +0.000 C 
BRANCH  25  27
ATOM     27  C23 MI8 C1124      24.177   9.851   7.345  0.00  0.00    +0.000 C 
ATOM     28  O2  MI8 C1124      24.229  10.910   6.402  0.00  0.00    +0.000 OA
BRANCH  27  29
ATOM     29  C24 MI8 C1124      24.614  10.471   8.697  0.00  0.00    +0.000 C 
BRANCH  29  31
ATOM     30  N1  MI8 C1124      23.469  12.467   7.961  0.00  0.00    +0.000 NA
ATOM     31  C25 MI8 C1124      23.812  11.705   9.174  0.00  0.00    +0.000 C 
BRANCH  31  32
ATOM     32  C26 MI8 C1124      24.588  12.631  10.145  0.00  0.00    +0.000 C 
BRANCH  32  34
ATOM     33  O3  MI8 C1124      24.860  13.079  12.468  0.00  0.00    +0.000 OA
ATOM     34  C27 MI8 C1124      24.132  12.612  11.616  0.00  0.00    +0.000 C 
BRANCH  34  35
ATOM     35  O4  MI8 C1124      22.869  12.033  12.115  0.00  0.00    +0.000 OA
ATOM     36  C28 MI8 C1124      22.672  10.613  12.205  0.00  0.00    +0.000 C 
ENDBRANCH  34  35
ENDBRANCH  32  34
ENDBRANCH  31  32
ENDBRANCH  29  31
ENDBRANCH  27  29
ENDBRANCH  25  27
ENDBRANCH  22  26
ENDBRANCH  20  24
ENDBRANCH   1  20
TORSDOF 14
ENDMDL
MODEL 4
REMARK VINA RESULT:      -3.7      3.189      9.471
REMARK  Name = ligand_pdbs\MI8.pdb
REMARK  14 active torsions:
REMARK  status: ('A' for Active; 'I' for Inactive)
REMARK    1  A    between atoms: C2_2  and  C5_4
REMARK    2  A    between atoms: C27_8  and  O4_9
REMARK    3  A    between atoms: C27_8  and  C26_11
REMARK    4  A    between atoms: C26_11  and  C25_12
REMARK    5  A    between atoms: C25_12  and  C24_13
REMARK    6  A    between atoms: C24_13  and  C23_14
REMARK    7  A    between atoms: C23_14  and  C22_16
REMARK    8  A    between atoms: C21_17  and  C19_18
REMARK    9  A    between atoms: C17_20  and  C16_21
REMARK   10  A    between atoms: C16_21  and  C15_23
REMARK   11  A    between atoms: C15_23  and  C13_24
REMARK   12  A    between atoms: C12_26  and  C11_27
REMARK   13  A    between atoms: C10_28  and  C9_29
REMARK   14  A    between atoms: C9_29  and  C3_31
REMARK                            x       y       z     vdW  Elec       q    Type
REMARK                         _______ _______ _______ _____ _____    ______ ____
ROOT
ATOM      1  C15 MI8 C1124      26.612  -0.867   3.076  0.00  0.00    +0.000 C 
ENDROOT
BRANCH   1   2
ATOM      2  C13 MI8 C1124      25.921   0.127   3.987  0.00  0.00    +0.000 C 
ATOM      3  C14 MI8 C1124      26.275   0.149   5.457  0.00  0.00    +0.000 C 
ATOM      4  C12 MI8 C1124      24.984   0.951   3.475  0.00  0.00    +0.000 C 
BRANCH   4   5
ATOM      5  C11 MI8 C1124      24.250   1.900   4.320  0.00  0.00    +0.000 C 
ATOM      6  C10 MI8 C1124      24.642   3.165   4.381  0.00  0.00    +0.000 C 
BRANCH   6   7
ATOM      7  C9  MI8 C1124      23.921   4.205   5.210  0.00  0.00    +0.000 C 
ATOM      8  N   MI8 C1124      24.340   4.033   6.614  0.00  0.00    +0.000 NA
BRANCH   7  12
ATOM      9  C2  MI8 C1124      24.818   7.827   5.454  0.00  0.00    +0.000 C 
ATOM     10  C4  MI8 C1124      25.398   5.602   3.700  0.00  0.00    +0.000 C 
ATOM     11  C8  MI8 C1124      27.350   7.703   5.113  0.00  0.00    +0.000 C 
ATOM     12  C3  MI8 C1124      24.282   5.620   4.740  0.00  0.00    +0.000 C 
ATOM     13  C   MI8 C1124      25.733   7.021   3.255  0.00  0.00    +0.000 C 
ATOM     14  O1  MI8 C1124      24.624   7.509   2.462  0.00  0.00    +0.000 OA
ATOM     15  C1  MI8 C1124      25.986   7.946   4.452  0.00  0.00    +0.000 C 
ATOM     16  O   MI8 C1124      24.698   6.457   5.843  0.00  0.00    +0.000 OA
BRANCH   9  17
ATOM     17  C5  MI8 C1124      24.958   8.797   6.626  0.00  0.00    +0.000 C 
ATOM     18  C6  MI8 C1124      24.053   9.735   6.901  0.00  0.00    +0.000 C 
ATOM     19  C7  MI8 C1124      24.259  10.673   8.062  0.00  0.00    +0.000 C 
ENDBRANCH   9  17
ENDBRANCH   7  12
ENDBRANCH   6   7
ENDBRANCH   4   5
ENDBRANCH   1   2
BRANCH   1  20
ATOM     20  C16 MI8 C1124      27.146  -1.968   3.993  0.00  0.00    +0.000 C 
ATOM     21  C18 MI8 C1124      26.155  -3.125   4.051  0.00  0.00    +0.000 C 
BRANCH  20  24
ATOM     22  C19 MI8 C1124      29.693  -1.893   3.823  0.00  0.00    +0.000 C 
ATOM     23  C20 MI8 C1124      30.857  -2.702   3.321  0.00  0.00    +0.000 C 
ATOM     24  C17 MI8 C1124      28.501  -2.505   3.584  0.00  0.00    +0.000 C 
BRANCH  22  26
ATOM     25  C22 MI8 C1124      30.202  -0.369   5.758  0.00  0.00    +0.000 C 
ATOM     26  C21 MI8 C1124      29.866  -0.541   4.459  0.00  0.00    +0.000 C 
BRANCH  25  27
ATOM     27  C23 MI8 C1124      30.424   0.996   6.404  0.00  0.00    +0.000 C 
ATOM     28  O2  MI8 C1124      30.893   0.793   7.729  0.00  0.00    +0.000 OA
BRANCH  27  29
ATOM     29  C24 MI8 C1124      29.119   1.821   6.544  0.00  0.00    +0.000 C 
BRANCH  29  31
ATOM     30  N1  MI8 C1124      29.377   3.949   7.657  0.00  0.00    +0.000 NA
ATOM     31  C25 MI8 C1124      29.245   3.346   6.320  0.00  0.00    +0.000 C 
BRANCH  31  32
ATOM     32  C26 MI8 C1124      28.032   3.986   5.598  0.00  0.00    +0.000 C 
BRANCH  32  34
ATOM     33  O3  MI8 C1124      28.377   5.073   3.508  0.00  0.00    +0.000 OA
ATOM     34  C27 MI8 C1124      28.098   4.028   4.060  0.00  0.00    +0.000 C 
BRANCH  34  35
ATOM     35  O4  MI8 C1124      27.815   2.895   3.158  0.00  0.00    +0.000 OA
ATOM     36  C28 MI8 C1124      28.678   1.749   3.089  0.00  0.00    +0.000 C 
ENDBRANCH  34  35
ENDBRANCH  32  34
ENDBRANCH  31  32
ENDBRANCH  29  31
ENDBRANCH  27  29
ENDBRANCH  25  27
ENDBRANCH  22  26
ENDBRANCH  20  24
ENDBRANCH   1  20
TORSDOF 14
ENDMDL
MODEL 5
REMARK VINA RESULT:      -3.4      3.282      9.186
REMARK  Name = ligand_pdbs\MI8.pdb
REMARK  14 active torsions:
REMARK  status: ('A' for Active; 'I' for Inactive)
REMARK    1  A    between atoms: C2_2  and  C5_4
REMARK    2  A    between atoms: C27_8  and  O4_9
REMARK    3  A    between atoms: C27_8  and  C26_11
REMARK    4  A    between atoms: C26_11  and  C25_12
REMARK    5  A    between atoms: C25_12  and  C24_13
REMARK    6  A    between atoms: C24_13  and  C23_14
REMARK    7  A    between atoms: C23_14  and  C22_16
REMARK    8  A    between atoms: C21_17  and  C19_18
REMARK    9  A    between atoms: C17_20  and  C16_21
REMARK   10  A    between atoms: C16_21  and  C15_23
REMARK   11  A    between atoms: C15_23  and  C13_24
REMARK   12  A    between atoms: C12_26  and  C11_27
REMARK   13  A    between atoms: C10_28  and  C9_29
REMARK   14  A    between atoms: C9_29  and  C3_31
REMARK                            x       y       z     vdW  Elec       q    Type
REMARK                         _______ _______ _______ _____ _____    ______ ____
ROOT
ATOM      1  C15 MI8 C1124      26.583  -1.016   3.134  0.00  0.00    +0.000 C 
ENDROOT
BRANCH   1   2
ATOM      2  C13 MI8 C1124      25.971   0.053   4.016  0.00  0.00    +0.000 C 
ATOM      3  C14 MI8 C1124      26.336   0.098   5.482  0.00  0.00    +0.000 C 
ATOM      4  C12 MI8 C1124      25.090   0.925   3.481  0.00  0.00    +0.000 C 
BRANCH   4   5
ATOM      5  C11 MI8 C1124      24.432   1.951   4.298  0.00  0.00    +0.000 C 
ATOM      6  C10 MI8 C1124      24.367   3.199   3.858  0.00  0.00    +0.000 C 
BRANCH   6   7
ATOM      7  C9  MI8 C1124      23.683   4.304   4.633  0.00  0.00    +0.000 C 
ATOM      8  N   MI8 C1124      23.809   3.993   6.070  0.00  0.00    +0.000 NA
BRANCH   7  12
ATOM      9  C2  MI8 C1124      25.007   7.739   5.297  0.00  0.00    +0.000 C 
ATOM     10  C4  MI8 C1124      25.662   5.495   3.593  0.00  0.00    +0.000 C 
ATOM     11  C8  MI8 C1124      27.503   7.235   5.543  0.00  0.00    +0.000 C 
ATOM     12  C3  MI8 C1124      24.345   5.658   4.345  0.00  0.00    +0.000 C 
ATOM     13  C   MI8 C1124      26.294   6.857   3.324  0.00  0.00    +0.000 C 
ATOM     14  O1  MI8 C1124      25.486   7.529   2.327  0.00  0.00    +0.000 OA
ATOM     15  C1  MI8 C1124      26.384   7.702   4.601  0.00  0.00    +0.000 C 
ATOM     16  O   MI8 C1124      24.602   6.394   5.563  0.00  0.00    +0.000 OA
BRANCH   9  17
ATOM     17  C5  MI8 C1124      25.002   8.646   6.525  0.00  0.00    +0.000 C 
ATOM     18  C6  MI8 C1124      24.108   9.618   6.704  0.00  0.00    +0.000 C 
ATOM     19  C7  MI8 C1124      24.168  10.490   7.930  0.00  0.00    +0.000 C 
ENDBRANCH   9  17
ENDBRANCH   7  12
ENDBRANCH   6   7
ENDBRANCH   4   5
ENDBRANCH   1   2
BRANCH   1  20
ATOM     20  C16 MI8 C1124      27.080  -2.104   4.088  0.00  0.00    +0.000 C 
ATOM     21  C18 MI8 C1124      26.065  -3.239   4.157  0.00  0.00    +0.000 C 
BRANCH  20  24
ATOM     22  C19 MI8 C1124      29.622  -2.035   3.857  0.00  0.00    +0.000 C 
ATOM     23  C20 MI8 C1124      30.782  -2.890   3.427  0.00  0.00    +0.000 C 
ATOM     24  C17 MI8 C1124      28.431  -2.677   3.716  0.00  0.00    +0.000 C 
BRANCH  22  26
ATOM     25  C22 MI8 C1124      30.147  -0.293   5.594  0.00  0.00    +0.000 C 
ATOM     26  C21 MI8 C1124      29.798  -0.618   4.328  0.00  0.00    +0.000 C 
BRANCH  25  27
ATOM     27  C23 MI8 C1124      30.371   1.138   6.073  0.00  0.00    +0.000 C 
ATOM     28  O2  MI8 C1124      29.461   1.403   7.131  0.00  0.00    +0.000 OA
BRANCH  27  29
ATOM     29  C24 MI8 C1124      30.067   2.198   4.984  0.00  0.00    +0.000 C 
BRANCH  29  31
ATOM     30  N1  MI8 C1124      28.505   2.198   3.142  0.00  0.00    +0.000 NA
ATOM     31  C25 MI8 C1124      28.579   2.379   4.601  0.00  0.00    +0.000 C 
BRANCH  31  32
ATOM     32  C26 MI8 C1124      27.992   3.767   4.965  0.00  0.00    +0.000 C 
BRANCH  32  34
ATOM     33  O3  MI8 C1124      28.339   4.341   7.249  0.00  0.00    +0.000 OA
ATOM     34  C27 MI8 C1124      27.537   3.954   6.424  0.00  0.00    +0.000 C 
BRANCH  34  35
ATOM     35  O4  MI8 C1124      26.185   3.669   6.945  0.00  0.00    +0.000 OA
ATOM     36  C28 MI8 C1124      25.957   3.362   8.329  0.00  0.00    +0.000 C 
ENDBRANCH  34  35
ENDBRANCH  32  34
ENDBRANCH  31  32
ENDBRANCH  29  31
ENDBRANCH  27  29
ENDBRANCH  25  27
ENDBRANCH  22  26
ENDBRANCH  20  24
ENDBRANCH   1  20
TORSDOF 14
ENDMDL
