MODEL 1
REMARK VINA RESULT:      -3.5      0.000      0.000
REMARK  Name = ligand_pdbs\MSE.pdb
REMARK  4 active torsions:
REMARK  status: ('A' for Active; 'I' for Inactive)
REMARK    1  A    between atoms: CA_2  and  C_3
REMARK    2  A    between atoms: CA_2  and  CB_5
REMARK    3  A    between atoms: CB_5  and  CG_6
REMARK    4  A    between atoms: CG_6  and  SE_7
REMARK                            x       y       z     vdW  Elec       q    Type
REMARK                         _______ _______ _______ _____ _____    ______ ____
ROOT
ATOM      1  N   MSE B 175      28.062   4.284   5.281  0.00  0.00    +0.000 NA
ATOM      2  CA  MSE B 175      27.701   5.388   4.395  0.00  0.00    +0.000 C 
ENDROOT
BRANCH   2   3
ATOM      3  C   MSE B 175      27.382   6.663   5.176  0.00  0.00    +0.000 C 
ATOM      4  O   MSE B 175      26.493   7.429   4.798  0.00  0.00    +0.000 OA
ENDBRANCH   2   3
BRANCH   2   5
ATOM      5  CB  MSE B 175      26.495   5.011   3.524  0.00  0.00    +0.000 C 
BRANCH   5   6
ATOM      6  CG  MSE B 175      26.071   3.547   3.625  0.00  0.00    +0.000 C 
BRANCH   6   7
ATOM      7 SE   MSE B 175      24.535   3.298   4.569  0.00  0.00    +0.000 Se
ATOM      8  CE  MSE B 175      23.908   4.992   4.692  0.00  0.00    +0.000 C 
ENDBRANCH   6   7
ENDBRANCH   5   6
ENDBRANCH   2   5
TORSDOF 4
ENDMDL
MODEL 2
REMARK VINA RESULT:      -3.5      2.565      3.407
REMARK  Name = ligand_pdbs\MSE.pdb
REMARK  4 active torsions:
REMARK  status: ('A' for Active; 'I' for Inactive)
REMARK    1  A    between atoms: CA_2  and  C_3
REMARK    2  A    between atoms: CA_2  and  CB_5
REMARK    3  A    between atoms: CB_5  and  CG_6
REMARK    4  A    between atoms: CG_6  and  SE_7
REMARK                            x       y       z     vdW  Elec       q    Type
REMARK                         _______ _______ _______ _____ _____    ______ ____
ROOT
ATOM      1  N   MSE B 175      25.569   7.156   5.230  0.00  0.00    +0.000 NA
ATOM      2  CA  MSE B 175      25.171   6.118   4.282  0.00  0.00    +0.000 C 
ENDROOT
BRANCH   2   3
ATOM      3  C   MSE B 175      24.324   5.034   4.949  0.00  0.00    +0.000 C 
ATOM      4  O   MSE B 175      23.200   4.760   4.522  0.00  0.00    +0.000 OA
ENDBRANCH   2   3
BRANCH   2   5
ATOM      5  CB  MSE B 175      26.405   5.473   3.636  0.00  0.00    +0.000 C 
BRANCH   5   6
ATOM      6  CG  MSE B 175      27.648   5.452   4.522  0.00  0.00    +0.000 C 
BRANCH   6   7
ATOM      7 SE   MSE B 175      28.008   3.816   5.233  0.00  0.00    +0.000 Se
ATOM      8  CE  MSE B 175      27.849   2.748   3.779  0.00  0.00    +0.000 C 
ENDBRANCH   6   7
ENDBRANCH   5   6
ENDBRANCH   2   5
TORSDOF 4
ENDMDL
MODEL 3
REMARK VINA RESULT:      -3.4      2.351      2.762
REMARK  Name = ligand_pdbs\MSE.pdb
REMARK  4 active torsions:
REMARK  status: ('A' for Active; 'I' for Inactive)
REMARK    1  A    between atoms: CA_2  and  C_3
REMARK    2  A    between atoms: CA_2  and  CB_5
REMARK    3  A    between atoms: CB_5  and  CG_6
REMARK    4  A    between atoms: CG_6  and  SE_7
REMARK                            x       y       z     vdW  Elec       q    Type
REMARK                         _______ _______ _______ _____ _____    ______ ____
ROOT
ATOM      1  N   MSE B 175      26.700   7.037   5.212  0.00  0.00    +0.000 NA
ATOM      2  CA  MSE B 175      25.886   6.472   4.139  0.00  0.00    +0.000 C 
ENDROOT
BRANCH   2   3
ATOM      3  C   MSE B 175      24.498   6.067   4.633  0.00  0.00    +0.000 C 
ATOM      4  O   MSE B 175      24.068   4.927   4.444  0.00  0.00    +0.000 OA
ENDBRANCH   2   3
BRANCH   2   5
ATOM      5  CB  MSE B 175      26.581   5.252   3.518  0.00  0.00    +0.000 C 
BRANCH   5   6
ATOM      6  CG  MSE B 175      27.735   4.689   4.344  0.00  0.00    +0.000 C 
BRANCH   6   7
ATOM      7 SE   MSE B 175      27.376   3.067   5.086  0.00  0.00    +0.000 Se
ATOM      8  CE  MSE B 175      26.545   3.548   6.620  0.00  0.00    +0.000 C 
ENDBRANCH   6   7
ENDBRANCH   5   6
ENDBRANCH   2   5
TORSDOF 4
ENDMDL
MODEL 4
REMARK VINA RESULT:      -3.4      2.629      2.918
REMARK  Name = ligand_pdbs\MSE.pdb
REMARK  4 active torsions:
REMARK  status: ('A' for Active; 'I' for Inactive)
REMARK    1  A    between atoms: CA_2  and  C_3
REMARK    2  A    between atoms: CA_2  and  CB_5
REMARK    3  A    between atoms: CB_5  and  CG_6
REMARK    4  A    between atoms: CG_6  and  SE_7
REMARK                            x       y       z     vdW  Elec       q    Type
REMARK                         _______ _______ _______ _____ _____    ______ ____
ROOT
ATOM      1  N   MSE B 175      26.321   2.693   3.238  0.00  0.00    +0.000 NA
ATOM      2  CA  MSE B 175      27.361   3.579   3.753  0.00  0.00    +0.000 C 
ENDROOT
BRANCH   2   3
ATOM      3  C   MSE B 175      27.539   3.428   5.264  0.00  0.00    +0.000 C 
ATOM      4  O   MSE B 175      27.312   2.352   5.821  0.00  0.00    +0.000 OA
ENDBRANCH   2   3
BRANCH   2   5
ATOM      5  CB  MSE B 175      27.038   5.043   3.424  0.00  0.00    +0.000 C 
BRANCH   5   6
ATOM      6  CG  MSE B 175      26.511   5.858   4.603  0.00  0.00    +0.000 C 
BRANCH   6   7
ATOM      7 SE   MSE B 175      24.788   6.407   4.396  0.00  0.00    +0.000 Se
ATOM      8  CE  MSE B 175      23.877   4.899   4.815  0.00  0.00    +0.000 C 
ENDBRANCH   6   7
ENDBRANCH   5   6
ENDBRANCH   2   5
TORSDOF 4
ENDMDL
MODEL 5
REMARK VINA RESULT:      -3.3      2.406      2.805
REMARK  Name = ligand_pdbs\MSE.pdb
REMARK  4 active torsions:
REMARK  status: ('A' for Active; 'I' for Inactive)
REMARK    1  A    between atoms: CA_2  and  C_3
REMARK    2  A    between atoms: CA_2  and  CB_5
REMARK    3  A    between atoms: CB_5  and  CG_6
REMARK    4  A    between atoms: CG_6  and  SE_7
REMARK                            x       y       z     vdW  Elec       q    Type
REMARK                         _______ _______ _______ _____ _____    ______ ____
ROOT
ATOM      1  N   MSE B 175      24.532   5.302   4.782  0.00  0.00    +0.000 NA
ATOM      2  CA  MSE B 175      25.991   5.348   4.839  0.00  0.00    +0.000 C 
ENDROOT
BRANCH   2   3
ATOM      3  C   MSE B 175      26.506   6.768   5.074  0.00  0.00    +0.000 C 
ATOM      4  O   MSE B 175      27.698   6.975   5.314  0.00  0.00    +0.000 OA
ENDBRANCH   2   3
BRANCH   2   5
ATOM      5  CB  MSE B 175      26.601   4.795   3.543  0.00  0.00    +0.000 C 
BRANCH   5   6
ATOM      6  CG  MSE B 175      27.424   3.520   3.722  0.00  0.00    +0.000 C 
BRANCH   6   7
ATOM      7 SE   MSE B 175      28.276   3.423   5.327  0.00  0.00    +0.000 Se
ATOM      8  CE  MSE B 175      27.793   1.773   5.893  0.00  0.00    +0.000 C 
ENDBRANCH   6   7
ENDBRANCH   5   6
ENDBRANCH   2   5
TORSDOF 4
ENDMDL
MODEL 6
REMARK VINA RESULT:      -3.3      2.901      3.777
REMARK  Name = ligand_pdbs\MSE.pdb
REMARK  4 active torsions:
REMARK  status: ('A' for Active; 'I' for Inactive)
REMARK    1  A    between atoms: CA_2  and  C_3
REMARK    2  A    between atoms: CA_2  and  CB_5
REMARK    3  A    between atoms: CB_5  and  CG_6
REMARK    4  A    between atoms: CG_6  and  SE_7
REMARK                            x       y       z     vdW  Elec       q    Type
REMARK                         _______ _______ _______ _____ _____    ______ ____
ROOT
ATOM      1  N   MSE B 175      23.871   2.758   4.275  0.00  0.00    +0.000 NA
ATOM      2  CA  MSE B 175      24.915   3.725   4.605  0.00  0.00    +0.000 C 
ENDROOT
BRANCH   2   3
ATOM      3  C   MSE B 175      25.883   3.181   5.655  0.00  0.00    +0.000 C 
ATOM      4  O   MSE B 175      26.042   3.765   6.730  0.00  0.00    +0.000 OA
ENDBRANCH   2   3
BRANCH   2   5
ATOM      5  CB  MSE B 175      24.297   5.036   5.113  0.00  0.00    +0.000 C 
BRANCH   5   6
ATOM      6  CG  MSE B 175      24.651   6.268   4.284  0.00  0.00    +0.000 C 
BRANCH   6   7
ATOM      7 SE   MSE B 175      25.730   7.447   5.154  0.00  0.00    +0.000 Se
ATOM      8  CE  MSE B 175      27.334   6.614   5.048  0.00  0.00    +0.000 C 
ENDBRANCH   6   7
ENDBRANCH   5   6
ENDBRANCH   2   5
TORSDOF 4
ENDMDL
MODEL 7
REMARK VINA RESULT:      -3.3      2.178      2.484
REMARK  Name = ligand_pdbs\MSE.pdb
REMARK  4 active torsions:
REMARK  status: ('A' for Active; 'I' for Inactive)
REMARK    1  A    between atoms: CA_2  and  C_3
REMARK    2  A    between atoms: CA_2  and  CB_5
REMARK    3  A    between atoms: CB_5  and  CG_6
REMARK    4  A    between atoms: CG_6  and  SE_7
REMARK                            x       y       z     vdW  Elec       q    Type
REMARK                         _______ _______ _______ _____ _____    ______ ____
ROOT
ATOM      1  N   MSE B 175      27.381   6.844   5.143  0.00  0.00    +0.000 NA
ATOM      2  CA  MSE B 175      27.413   5.384   5.100  0.00  0.00    +0.000 C 
ENDROOT
BRANCH   2   3
ATOM      3  C   MSE B 175      27.762   4.865   3.706  0.00  0.00    +0.000 C 
ATOM      4  O   MSE B 175      27.640   3.669   3.429  0.00  0.00    +0.000 OA
ENDBRANCH   2   3
BRANCH   2   5
ATOM      5  CB  MSE B 175      26.062   4.800   5.537  0.00  0.00    +0.000 C 
BRANCH   5   6
ATOM      6  CG  MSE B 175      24.843   5.531   4.978  0.00  0.00    +0.000 C 
BRANCH   6   7
ATOM      7 SE   MSE B 175      23.465   4.424   4.547  0.00  0.00    +0.000 Se
ATOM      8  CE  MSE B 175      24.307   2.824   4.440  0.00  0.00    +0.000 C 
ENDBRANCH   6   7
ENDBRANCH   5   6
ENDBRANCH   2   5
TORSDOF 4
ENDMDL
MODEL 8
REMARK VINA RESULT:      -3.2      2.805      3.321
REMARK  Name = ligand_pdbs\MSE.pdb
REMARK  4 active torsions:
REMARK  status: ('A' for Active; 'I' for Inactive)
REMARK    1  A    between atoms: CA_2  and  C_3
REMARK    2  A    between atoms: CA_2  and  CB_5
REMARK    3  A    between atoms: CB_5  and  CG_6
REMARK    4  A    between atoms: CG_6  and  SE_7
REMARK                            x       y       z     vdW  Elec       q    Type
REMARK                         _______ _______ _______ _____ _____    ______ ____
ROOT
ATOM      1  N   MSE B 175      26.895   3.947   5.968  0.00  0.00    +0.000 NA
ATOM      2  CA  MSE B 175      27.799   4.298   4.876  0.00  0.00    +0.000 C 
ENDROOT
BRANCH   2   3
ATOM      3  C   MSE B 175      27.627   5.753   4.441  0.00  0.00    +0.000 C 
ATOM      4  O   MSE B 175      27.616   6.663   5.273  0.00  0.00    +0.000 OA
ENDBRANCH   2   3
BRANCH   2   5
ATOM      5  CB  MSE B 175      27.573   3.377   3.669  0.00  0.00    +0.000 C 
BRANCH   5   6
ATOM      6  CG  MSE B 175      27.733   1.887   3.968  0.00  0.00    +0.000 C 
BRANCH   6   7
ATOM      7 SE   MSE B 175      29.372   1.450   4.626  0.00  0.00    +0.000 Se
ATOM      8  CE  MSE B 175      28.948   0.852   6.281  0.00  0.00    +0.000 C 
ENDBRANCH   6   7
ENDBRANCH   5   6
ENDBRANCH   2   5
TORSDOF 4
ENDMDL
MODEL 9
REMARK VINA RESULT:      -3.2      2.744      3.474
REMARK  Name = ligand_pdbs\MSE.pdb
REMARK  4 active torsions:
REMARK  status: ('A' for Active; 'I' for Inactive)
REMARK    1  A    between atoms: CA_2  and  C_3
REMARK    2  A    between atoms: CA_2  and  CB_5
REMARK    3  A    between atoms: CB_5  and  CG_6
REMARK    4  A    between atoms: CG_6  and  SE_7
REMARK                            x       y       z     vdW  Elec       q    Type
REMARK                         _______ _______ _______ _____ _____    ______ ____
ROOT
ATOM      1  N   MSE B 175      25.298   3.773   6.066  0.00  0.00    +0.000 NA
ATOM      2  CA  MSE B 175      25.400   4.815   5.048  0.00  0.00    +0.000 C 
ENDROOT
BRANCH   2   3
ATOM      3  C   MSE B 175      24.023   5.287   4.580  0.00  0.00    +0.000 C 
ATOM      4  O   MSE B 175      23.078   4.499   4.503  0.00  0.00    +0.000 OA
ENDBRANCH   2   3
BRANCH   2   5
ATOM      5  CB  MSE B 175      26.204   4.316   3.840  0.00  0.00    +0.000 C 
BRANCH   5   6
ATOM      6  CG  MSE B 175      27.645   3.920   4.155  0.00  0.00    +0.000 C 
BRANCH   6   7
ATOM      7 SE   MSE B 175      27.986   2.150   3.904  0.00  0.00    +0.000 Se
ATOM      8  CE  MSE B 175      28.197   1.578   5.608  0.00  0.00    +0.000 C 
ENDBRANCH   6   7
ENDBRANCH   5   6
ENDBRANCH   2   5
TORSDOF 4
ENDMDL
