MODEL 1
REMARK VINA RESULT:      -7.3      0.000      0.000
REMARK  Name = ligand_pdbs\MTA.pdb
REMARK  3 active torsions:
REMARK  status: ('A' for Active; 'I' for Inactive)
REMARK    1  A    between atoms: S5'_2  and  C5'_3
REMARK    2  A    between atoms: C5'_3  and  C4'_4
REMARK    3  A    between atoms: C1'_10  and  N9_11
REMARK                            x       y       z     vdW  Elec       q    Type
REMARK                         _______ _______ _______ _____ _____    ______ ____
ROOT
ATOM      1  C4' MTA A 701      27.930  -0.120   5.088  0.00  0.00    +0.000 C 
ATOM      2  O4' MTA A 701      27.433   1.143   5.535  0.00  0.00    +0.000 OA
ATOM      3  C2' MTA A 701      26.963   1.084   3.237  0.00  0.00    +0.000 C 
ATOM      4  O2' MTA A 701      25.899   1.175   2.298  0.00  0.00    +0.000 OA
ATOM      5  C3' MTA A 701      27.318  -0.336   3.692  0.00  0.00    +0.000 C 
ATOM      6  O3' MTA A 701      26.190  -1.193   3.711  0.00  0.00    +0.000 OA
ATOM      7  C1' MTA A 701      26.590   1.705   4.584  0.00  0.00    +0.000 C 
ENDROOT
BRANCH   7   8
ATOM      8  N9  MTA A 701      26.783   3.175   4.599  0.00  0.00    +0.000 N 
ATOM      9  C8  MTA A 701      27.945   3.880   4.725  0.00  0.00    +0.000 C 
ATOM     10  N7  MTA A 701      27.792   5.182   4.756  0.00  0.00    +0.000 NA
ATOM     11  C5  MTA A 701      26.418   5.372   4.671  0.00  0.00    +0.000 C 
ATOM     12  C6  MTA A 701      25.579   6.517   4.650  0.00  0.00    +0.000 C 
ATOM     13  N6  MTA A 701      26.069   7.768   4.727  0.00  0.00    +0.000 NA
ATOM     14  N1  MTA A 701      24.233   6.337   4.592  0.00  0.00    +0.000 NA
ATOM     15  C2  MTA A 701      23.733   5.083   4.553  0.00  0.00    +0.000 C 
ATOM     16  N3  MTA A 701      24.410   3.910   4.551  0.00  0.00    +0.000 NA
ATOM     17  C4  MTA A 701      25.766   4.113   4.649  0.00  0.00    +0.000 C 
ENDBRANCH   7   8
BRANCH   1  18
ATOM     18  C5' MTA A 701      29.484  -0.115   5.148  0.00  0.00    +0.000 C 
BRANCH  18  20
ATOM     19  CS  MTA A 701      30.786   2.331   5.864  0.00  0.00    +0.000 C 
ATOM     20  S5' MTA A 701      30.197   0.764   6.570  0.00  0.00    +0.000 S 
ENDBRANCH  18  20
ENDBRANCH   1  18
TORSDOF 3
ENDMDL
MODEL 2
REMARK VINA RESULT:      -7.2      1.248      2.090
REMARK  Name = ligand_pdbs\MTA.pdb
REMARK  3 active torsions:
REMARK  status: ('A' for Active; 'I' for Inactive)
REMARK    1  A    between atoms: S5'_2  and  C5'_3
REMARK    2  A    between atoms: C5'_3  and  C4'_4
REMARK    3  A    between atoms: C1'_10  and  N9_11
REMARK                            x       y       z     vdW  Elec       q    Type
REMARK                         _______ _______ _______ _____ _____    ______ ____
ROOT
ATOM      1  C4' MTA A 701      28.055   0.865   4.438  0.00  0.00    +0.000 C 
ATOM      2  O4' MTA A 701      27.073   1.636   5.134  0.00  0.00    +0.000 OA
ATOM      3  C2' MTA A 701      26.334   1.578   2.907  0.00  0.00    +0.000 C 
ATOM      4  O2' MTA A 701      25.232   1.201   2.091  0.00  0.00    +0.000 OA
ATOM      5  C3' MTA A 701      27.418   0.508   3.082  0.00  0.00    +0.000 C 
ATOM      6  O3' MTA A 701      26.888  -0.806   3.052  0.00  0.00    +0.000 OA
ATOM      7  C1' MTA A 701      25.922   1.775   4.367  0.00  0.00    +0.000 C 
ENDROOT
BRANCH   7   8
ATOM      8  N9  MTA A 701      25.355   3.123   4.615  0.00  0.00    +0.000 N 
ATOM      9  C8  MTA A 701      24.044   3.491   4.708  0.00  0.00    +0.000 C 
ATOM     10  N7  MTA A 701      23.850   4.776   4.882  0.00  0.00    +0.000 NA
ATOM     11  C5  MTA A 701      25.127   5.322   4.880  0.00  0.00    +0.000 C 
ATOM     12  C6  MTA A 701      25.638   6.640   5.022  0.00  0.00    +0.000 C 
ATOM     13  N6  MTA A 701      24.835   7.706   5.197  0.00  0.00    +0.000 NA
ATOM     14  N1  MTA A 701      26.980   6.831   4.935  0.00  0.00    +0.000 NA
ATOM     15  C2  MTA A 701      27.788   5.770   4.721  0.00  0.00    +0.000 C 
ATOM     16  N3  MTA A 701      27.444   4.467   4.584  0.00  0.00    +0.000 NA
ATOM     17  C4  MTA A 701      26.080   4.301   4.636  0.00  0.00    +0.000 C 
ENDBRANCH   7   8
BRANCH   1  18
ATOM     18  C5' MTA A 701      29.385   1.667   4.365  0.00  0.00    +0.000 C 
BRANCH  18  20
ATOM     19  CS  MTA A 701      30.355   0.542   6.811  0.00  0.00    +0.000 C 
ATOM     20  S5' MTA A 701      30.093   2.132   5.973  0.00  0.00    +0.000 S 
ENDBRANCH  18  20
ENDBRANCH   1  18
TORSDOF 3
ENDMDL
MODEL 3
REMARK VINA RESULT:      -7.0      1.936      3.547
REMARK  Name = ligand_pdbs\MTA.pdb
REMARK  3 active torsions:
REMARK  status: ('A' for Active; 'I' for Inactive)
REMARK    1  A    between atoms: S5'_2  and  C5'_3
REMARK    2  A    between atoms: C5'_3  and  C4'_4
REMARK    3  A    between atoms: C1'_10  and  N9_11
REMARK                            x       y       z     vdW  Elec       q    Type
REMARK                         _______ _______ _______ _____ _____    ______ ____
ROOT
ATOM      1  C4' MTA A 701      29.701   0.833   4.453  0.00  0.00    +0.000 C 
ATOM      2  O4' MTA A 701      28.588   1.506   3.861  0.00  0.00    +0.000 OA
ATOM      3  C2' MTA A 701      28.660   2.281   6.075  0.00  0.00    +0.000 C 
ATOM      4  O2' MTA A 701      28.761   3.465   6.856  0.00  0.00    +0.000 OA
ATOM      5  C3' MTA A 701      29.989   1.582   5.767  0.00  0.00    +0.000 C 
ATOM      6  O3' MTA A 701      31.065   2.497   5.654  0.00  0.00    +0.000 OA
ATOM      7  C1' MTA A 701      28.182   2.574   4.652  0.00  0.00    +0.000 C 
ENDROOT
BRANCH   7   8
ATOM      8  N9  MTA A 701      26.706   2.685   4.566  0.00  0.00    +0.000 N 
ATOM      9  C8  MTA A 701      25.793   1.707   4.296  0.00  0.00    +0.000 C 
ATOM     10  N7  MTA A 701      24.551   2.122   4.235  0.00  0.00    +0.000 NA
ATOM     11  C5  MTA A 701      24.632   3.491   4.456  0.00  0.00    +0.000 C 
ATOM     12  C6  MTA A 701      23.676   4.538   4.524  0.00  0.00    +0.000 C 
ATOM     13  N6  MTA A 701      22.359   4.321   4.353  0.00  0.00    +0.000 NA
ATOM     14  N1  MTA A 701      24.114   5.809   4.728  0.00  0.00    +0.000 NA
ATOM     15  C2  MTA A 701      25.439   6.038   4.863  0.00  0.00    +0.000 C 
ATOM     16  N3  MTA A 701      26.453   5.142   4.835  0.00  0.00    +0.000 NA
ATOM     17  C4  MTA A 701      25.992   3.871   4.589  0.00  0.00    +0.000 C 
ENDBRANCH   7   8
BRANCH   1  18
ATOM     18  C5' MTA A 701      29.370  -0.680   4.601  0.00  0.00    +0.000 C 
BRANCH  18  20
ATOM     19  CS  MTA A 701      27.056  -2.363   4.538  0.00  0.00    +0.000 C 
ATOM     20  S5' MTA A 701      28.080  -1.299   3.480  0.00  0.00    +0.000 S 
ENDBRANCH  18  20
ENDBRANCH   1  18
TORSDOF 3
ENDMDL
MODEL 4
REMARK VINA RESULT:      -6.6      2.002      3.069
REMARK  Name = ligand_pdbs\MTA.pdb
REMARK  3 active torsions:
REMARK  status: ('A' for Active; 'I' for Inactive)
REMARK    1  A    between atoms: S5'_2  and  C5'_3
REMARK    2  A    between atoms: C5'_3  and  C4'_4
REMARK    3  A    between atoms: C1'_10  and  N9_11
REMARK                            x       y       z     vdW  Elec       q    Type
REMARK                         _______ _______ _______ _____ _____    ______ ____
ROOT
ATOM      1  C4' MTA A 701      28.474   0.151   4.932  0.00  0.00    +0.000 C 
ATOM      2  O4' MTA A 701      28.262   1.302   4.111  0.00  0.00    +0.000 OA
ATOM      3  C2' MTA A 701      28.755   2.157   6.240  0.00  0.00    +0.000 C 
ATOM      4  O2' MTA A 701      29.653   3.012   6.934  0.00  0.00    +0.000 OA
ATOM      5  C3' MTA A 701      29.145   0.675   6.215  0.00  0.00    +0.000 C 
ATOM      6  O3' MTA A 701      30.550   0.488   6.217  0.00  0.00    +0.000 OA
ATOM      7  C1' MTA A 701      28.735   2.448   4.738  0.00  0.00    +0.000 C 
ENDROOT
BRANCH   7   8
ATOM      8  N9  MTA A 701      27.834   3.574   4.395  0.00  0.00    +0.000 N 
ATOM      9  C8  MTA A 701      28.111   4.695   3.668  0.00  0.00    +0.000 C 
ATOM     10  N7  MTA A 701      27.116   5.545   3.576  0.00  0.00    +0.000 NA
ATOM     11  C5  MTA A 701      26.096   4.966   4.321  0.00  0.00    +0.000 C 
ATOM     12  C6  MTA A 701      24.765   5.346   4.634  0.00  0.00    +0.000 C 
ATOM     13  N6  MTA A 701      24.223   6.496   4.192  0.00  0.00    +0.000 NA
ATOM     14  N1  MTA A 701      24.029   4.538   5.442  0.00  0.00    +0.000 NA
ATOM     15  C2  MTA A 701      24.580   3.401   5.919  0.00  0.00    +0.000 C 
ATOM     16  N3  MTA A 701      25.822   2.910   5.692  0.00  0.00    +0.000 NA
ATOM     17  C4  MTA A 701      26.561   3.761   4.906  0.00  0.00    +0.000 C 
ENDBRANCH   7   8
BRANCH   1  18
ATOM     18  C5' MTA A 701      27.124  -0.594   5.136  0.00  0.00    +0.000 C 
BRANCH  18  20
ATOM     19  CS  MTA A 701      28.676  -2.498   3.667  0.00  0.00    +0.000 C 
ATOM     20  S5' MTA A 701      27.096  -2.312   4.543  0.00  0.00    +0.000 S 
ENDBRANCH  18  20
ENDBRANCH   1  18
TORSDOF 3
ENDMDL
MODEL 5
REMARK VINA RESULT:      -6.6      1.880      3.278
REMARK  Name = ligand_pdbs\MTA.pdb
REMARK  3 active torsions:
REMARK  status: ('A' for Active; 'I' for Inactive)
REMARK    1  A    between atoms: S5'_2  and  C5'_3
REMARK    2  A    between atoms: C5'_3  and  C4'_4
REMARK    3  A    between atoms: C1'_10  and  N9_11
REMARK                            x       y       z     vdW  Elec       q    Type
REMARK                         _______ _______ _______ _____ _____    ______ ____
ROOT
ATOM      1  C4' MTA A 701      28.382   0.088   4.969  0.00  0.00    +0.000 C 
ATOM      2  O4' MTA A 701      27.784   1.164   4.242  0.00  0.00    +0.000 OA
ATOM      3  C2' MTA A 701      28.367   2.084   6.321  0.00  0.00    +0.000 C 
ATOM      4  O2' MTA A 701      29.128   3.123   6.924  0.00  0.00    +0.000 OA
ATOM      5  C3' MTA A 701      29.091   0.742   6.169  0.00  0.00    +0.000 C 
ATOM      6  O3' MTA A 701      30.484   0.901   5.966  0.00  0.00    +0.000 OA
ATOM      7  C1' MTA A 701      28.058   2.382   4.853  0.00  0.00    +0.000 C 
ENDROOT
BRANCH   7   8
ATOM      8  N9  MTA A 701      26.873   3.261   4.694  0.00  0.00    +0.000 N 
ATOM      9  C8  MTA A 701      25.604   2.920   4.328  0.00  0.00    +0.000 C 
ATOM     10  N7  MTA A 701      24.777   3.932   4.222  0.00  0.00    +0.000 NA
ATOM     11  C5  MTA A 701      25.553   5.046   4.515  0.00  0.00    +0.000 C 
ATOM     12  C6  MTA A 701      25.293   6.440   4.586  0.00  0.00    +0.000 C 
ATOM     13  N6  MTA A 701      24.076   6.957   4.334  0.00  0.00    +0.000 NA
ATOM     14  N1  MTA A 701      26.321   7.281   4.875  0.00  0.00    +0.000 NA
ATOM     15  C2  MTA A 701      27.553   6.771   5.091  0.00  0.00    +0.000 C 
ATOM     16  N3  MTA A 701      27.939   5.473   5.072  0.00  0.00    +0.000 NA
ATOM     17  C4  MTA A 701      26.894   4.644   4.739  0.00  0.00    +0.000 C 
ENDBRANCH   7   8
BRANCH   1  18
ATOM     18  C5' MTA A 701      27.294  -0.965   5.322  0.00  0.00    +0.000 C 
BRANCH  18  20
ATOM     19  CS  MTA A 701      29.002  -2.466   3.584  0.00  0.00    +0.000 C 
ATOM     20  S5' MTA A 701      27.347  -2.489   4.333  0.00  0.00    +0.000 S 
ENDBRANCH  18  20
ENDBRANCH   1  18
TORSDOF 3
ENDMDL
MODEL 6
REMARK VINA RESULT:      -6.4      3.322      6.035
REMARK  Name = ligand_pdbs\MTA.pdb
REMARK  3 active torsions:
REMARK  status: ('A' for Active; 'I' for Inactive)
REMARK    1  A    between atoms: S5'_2  and  C5'_3
REMARK    2  A    between atoms: C5'_3  and  C4'_4
REMARK    3  A    between atoms: C1'_10  and  N9_11
REMARK                            x       y       z     vdW  Elec       q    Type
REMARK                         _______ _______ _______ _____ _____    ______ ____
ROOT
ATOM      1  C4' MTA A 701      25.541   5.480   4.221  0.00  0.00    +0.000 C 
ATOM      2  O4' MTA A 701      26.315   4.462   3.583  0.00  0.00    +0.000 OA
ATOM      3  C2' MTA A 701      25.233   3.379   5.362  0.00  0.00    +0.000 C 
ATOM      4  O2' MTA A 701      24.354   2.303   5.664  0.00  0.00    +0.000 OA
ATOM      5  C3' MTA A 701      24.558   4.737   5.144  0.00  0.00    +0.000 C 
ATOM      6  O3' MTA A 701      23.263   4.611   4.582  0.00  0.00    +0.000 OA
ATOM      7  C1' MTA A 701      25.908   3.200   4.001  0.00  0.00    +0.000 C 
ENDROOT
BRANCH   7   8
ATOM      8  N9  MTA A 701      27.102   2.325   4.076  0.00  0.00    +0.000 N 
ATOM      9  C8  MTA A 701      28.415   2.683   4.178  0.00  0.00    +0.000 C 
ATOM     10  N7  MTA A 701      29.257   1.678   4.171  0.00  0.00    +0.000 NA
ATOM     11  C5  MTA A 701      28.453   0.554   4.026  0.00  0.00    +0.000 C 
ATOM     12  C6  MTA A 701      28.710  -0.840   3.946  0.00  0.00    +0.000 C 
ATOM     13  N6  MTA A 701      29.956  -1.345   4.002  0.00  0.00    +0.000 NA
ATOM     14  N1  MTA A 701      27.662  -1.686   3.765  0.00  0.00    +0.000 NA
ATOM     15  C2  MTA A 701      26.412  -1.182   3.670  0.00  0.00    +0.000 C 
ATOM     16  N3  MTA A 701      26.022   0.113   3.743  0.00  0.00    +0.000 NA
ATOM     17  C4  MTA A 701      27.100   0.953   3.887  0.00  0.00    +0.000 C 
ENDBRANCH   7   8
BRANCH   1  18
ATOM     18  C5' MTA A 701      26.493   6.488   4.926  0.00  0.00    +0.000 C 
BRANCH  18  20
ATOM     19  CS  MTA A 701      25.000   8.657   6.047  0.00  0.00    +0.000 C 
ATOM     20  S5' MTA A 701      26.094   8.241   4.657  0.00  0.00    +0.000 S 
ENDBRANCH  18  20
ENDBRANCH   1  18
TORSDOF 3
ENDMDL
MODEL 7
REMARK VINA RESULT:      -6.2      3.199      5.917
REMARK  Name = ligand_pdbs\MTA.pdb
REMARK  3 active torsions:
REMARK  status: ('A' for Active; 'I' for Inactive)
REMARK    1  A    between atoms: S5'_2  and  C5'_3
REMARK    2  A    between atoms: C5'_3  and  C4'_4
REMARK    3  A    between atoms: C1'_10  and  N9_11
REMARK                            x       y       z     vdW  Elec       q    Type
REMARK                         _______ _______ _______ _____ _____    ______ ____
ROOT
ATOM      1  C4' MTA A 701      26.179   4.964   3.979  0.00  0.00    +0.000 C 
ATOM      2  O4' MTA A 701      26.476   3.832   3.160  0.00  0.00    +0.000 OA
ATOM      3  C2' MTA A 701      25.386   2.951   5.042  0.00  0.00    +0.000 C 
ATOM      4  O2' MTA A 701      24.263   2.173   5.437  0.00  0.00    +0.000 OA
ATOM      5  C3' MTA A 701      25.160   4.467   5.021  0.00  0.00    +0.000 C 
ATOM      6  O3' MTA A 701      23.825   4.809   4.693  0.00  0.00    +0.000 OA
ATOM      7  C1' MTA A 701      25.751   2.721   3.575  0.00  0.00    +0.000 C 
ENDROOT
BRANCH   7   8
ATOM      8  N9  MTA A 701      26.596   1.516   3.388  0.00  0.00    +0.000 N 
ATOM      9  C8  MTA A 701      26.430   0.488   2.505  0.00  0.00    +0.000 C 
ATOM     10  N7  MTA A 701      27.318  -0.470   2.612  0.00  0.00    +0.000 NA
ATOM     11  C5  MTA A 701      28.132  -0.074   3.666  0.00  0.00    +0.000 C 
ATOM     12  C6  MTA A 701      29.271  -0.636   4.300  0.00  0.00    +0.000 C 
ATOM     13  N6  MTA A 701      29.799  -1.813   3.916  0.00  0.00    +0.000 NA
ATOM     14  N1  MTA A 701      29.819   0.020   5.357  0.00  0.00    +0.000 NA
ATOM     15  C2  MTA A 701      29.270   1.183   5.771  0.00  0.00    +0.000 C 
ATOM     16  N3  MTA A 701      28.203   1.838   5.255  0.00  0.00    +0.000 NA
ATOM     17  C4  MTA A 701      27.642   1.139   4.214  0.00  0.00    +0.000 C 
ENDBRANCH   7   8
BRANCH   1  18
ATOM     18  C5' MTA A 701      27.501   5.546   4.556  0.00  0.00    +0.000 C 
BRANCH  18  20
ATOM     19  CS  MTA A 701      25.857   7.888   4.640  0.00  0.00    +0.000 C 
ATOM     20  S5' MTA A 701      27.334   7.149   5.397  0.00  0.00    +0.000 S 
ENDBRANCH  18  20
ENDBRANCH   1  18
TORSDOF 3
ENDMDL
MODEL 8
REMARK VINA RESULT:      -6.0      1.906      2.786
REMARK  Name = ligand_pdbs\MTA.pdb
REMARK  3 active torsions:
REMARK  status: ('A' for Active; 'I' for Inactive)
REMARK    1  A    between atoms: S5'_2  and  C5'_3
REMARK    2  A    between atoms: C5'_3  and  C4'_4
REMARK    3  A    between atoms: C1'_10  and  N9_11
REMARK                            x       y       z     vdW  Elec       q    Type
REMARK                         _______ _______ _______ _____ _____    ______ ____
ROOT
ATOM      1  C4' MTA A 701      28.498  -0.782   5.726  0.00  0.00    +0.000 C 
ATOM      2  O4' MTA A 701      27.117  -0.434   5.603  0.00  0.00    +0.000 OA
ATOM      3  C2' MTA A 701      28.040  -0.021   3.485  0.00  0.00    +0.000 C 
ATOM      4  O2' MTA A 701      27.915  -0.364   2.111  0.00  0.00    +0.000 OA
ATOM      5  C3' MTA A 701      29.034  -0.869   4.286  0.00  0.00    +0.000 C 
ATOM      6  O3' MTA A 701      29.114  -2.201   3.808  0.00  0.00    +0.000 OA
ATOM      7  C1' MTA A 701      26.758  -0.314   4.266  0.00  0.00    +0.000 C 
ENDROOT
BRANCH   7   8
ATOM      8  N9  MTA A 701      25.763   0.780   4.146  0.00  0.00    +0.000 N 
ATOM      9  C8  MTA A 701      24.718   0.888   3.276  0.00  0.00    +0.000 C 
ATOM     10  N7  MTA A 701      24.039   2.005   3.376  0.00  0.00    +0.000 NA
ATOM     11  C5  MTA A 701      24.691   2.719   4.372  0.00  0.00    +0.000 C 
ATOM     12  C6  MTA A 701      24.485   3.988   4.974  0.00  0.00    +0.000 C 
ATOM     13  N6  MTA A 701      23.481   4.804   4.604  0.00  0.00    +0.000 NA
ATOM     14  N1  MTA A 701      25.359   4.408   5.927  0.00  0.00    +0.000 NA
ATOM     15  C2  MTA A 701      26.391   3.609   6.276  0.00  0.00    +0.000 C 
ATOM     16  N3  MTA A 701      26.698   2.379   5.801  0.00  0.00    +0.000 NA
ATOM     17  C4  MTA A 701      25.826   1.991   4.812  0.00  0.00    +0.000 C 
ENDBRANCH   7   8
BRANCH   1  18
ATOM     18  C5' MTA A 701      29.211   0.248   6.648  0.00  0.00    +0.000 C 
BRANCH  18  20
ATOM     19  CS  MTA A 701      29.943   2.997   6.334  0.00  0.00    +0.000 C 
ATOM     20  S5' MTA A 701      30.416   1.322   5.813  0.00  0.00    +0.000 S 
ENDBRANCH  18  20
ENDBRANCH   1  18
TORSDOF 3
ENDMDL
MODEL 9
REMARK VINA RESULT:      -5.6      2.385      3.284
REMARK  Name = ligand_pdbs\MTA.pdb
REMARK  3 active torsions:
REMARK  status: ('A' for Active; 'I' for Inactive)
REMARK    1  A    between atoms: S5'_2  and  C5'_3
REMARK    2  A    between atoms: C5'_3  and  C4'_4
REMARK    3  A    between atoms: C1'_10  and  N9_11
REMARK                            x       y       z     vdW  Elec       q    Type
REMARK                         _______ _______ _______ _____ _____    ______ ____
ROOT
ATOM      1  C4' MTA A 701      27.882  -0.342   3.362  0.00  0.00    +0.000 C 
ATOM      2  O4' MTA A 701      28.115   1.067   3.424  0.00  0.00    +0.000 OA
ATOM      3  C2' MTA A 701      29.031   0.211   5.408  0.00  0.00    +0.000 C 
ATOM      4  O2' MTA A 701      30.238   0.137   6.156  0.00  0.00    +0.000 OA
ATOM      5  C3' MTA A 701      28.778  -0.959   4.451  0.00  0.00    +0.000 C 
ATOM      6  O3' MTA A 701      29.980  -1.501   3.933  0.00  0.00    +0.000 OA
ATOM      7  C1' MTA A 701      29.050   1.368   4.407  0.00  0.00    +0.000 C 
ENDROOT
BRANCH   7   8
ATOM      8  N9  MTA A 701      28.671   2.658   5.033  0.00  0.00    +0.000 N 
ATOM      9  C8  MTA A 701      28.834   3.057   6.327  0.00  0.00    +0.000 C 
ATOM     10  N7  MTA A 701      28.348   4.245   6.597  0.00  0.00    +0.000 NA
ATOM     11  C5  MTA A 701      27.791   4.672   5.398  0.00  0.00    +0.000 C 
ATOM     12  C6  MTA A 701      27.112   5.850   4.989  0.00  0.00    +0.000 C 
ATOM     13  N6  MTA A 701      26.870   6.870   5.833  0.00  0.00    +0.000 NA
ATOM     14  N1  MTA A 701      26.655   5.928   3.711  0.00  0.00    +0.000 NA
ATOM     15  C2  MTA A 701      26.862   4.892   2.869  0.00  0.00    +0.000 C 
ATOM     16  N3  MTA A 701      27.501   3.724   3.117  0.00  0.00    +0.000 NA
ATOM     17  C4  MTA A 701      27.920   3.649   4.424  0.00  0.00    +0.000 C 
ENDBRANCH   7   8
BRANCH   1  18
ATOM     18  C5' MTA A 701      26.359  -0.620   3.507  0.00  0.00    +0.000 C 
BRANCH  18  20
ATOM     19  CS  MTA A 701      25.091   1.576   4.835  0.00  0.00    +0.000 C 
ATOM     20  S5' MTA A 701      25.282   0.811   3.198  0.00  0.00    +0.000 S 
ENDBRANCH  18  20
ENDBRANCH   1  18
TORSDOF 3
ENDMDL
