MODEL 1
REMARK VINA RESULT:      -7.2      0.000      0.000
REMARK  Name = ligand_pdbs\MXD.pdb
REMARK  0 active torsions:
REMARK  status: ('A' for Active; 'I' for Inactive)
REMARK                            x       y       z     vdW  Elec       q    Type
REMARK                         _______ _______ _______ _____ _____    ______ ____
ROOT
ATOM      1  NAO MXD A1002      23.221   4.611   4.510  0.00  0.00    +0.000 NA
ATOM      2  CAE MXD A1002      24.569   4.565   4.525  0.00  0.00    +0.000 C 
ATOM      3  CAF MXD A1002      25.191   3.353   4.241  0.00  0.00    +0.000 C 
ATOM      4  NAC MXD A1002      25.359   5.709   4.813  0.00  0.00    +0.000 N 
ATOM      5  OAN MXD A1002      24.799   6.801   5.077  0.00  0.00    +0.000 OA
ATOM      6  CAA MXD A1002      26.711   5.577   4.802  0.00  0.00    +0.000 C 
ATOM      7  NAM MXD A1002      27.511   6.641   5.075  0.00  0.00    +0.000 NA
ATOM      8  NAB MXD A1002      27.313   4.380   4.530  0.00  0.00    +0.000 NA
ATOM      9  CAD MXD A1002      26.591   3.249   4.254  0.00  0.00    +0.000 C 
ATOM     10  NAI MXD A1002      27.194   1.987   3.930  0.00  0.00    +0.000 N 
ATOM     11  CAG MXD A1002      26.322   0.819   4.227  0.00  0.00    +0.000 C 
ATOM     12  CAK MXD A1002      28.554   1.741   4.457  0.00  0.00    +0.000 C 
ATOM     13  CAL MXD A1002      29.155   0.536   3.704  0.00  0.00    +0.000 C 
ATOM     14  CAJ MXD A1002      28.157  -0.158   2.748  0.00  0.00    +0.000 C 
ATOM     15  CAH MXD A1002      26.763  -0.374   3.373  0.00  0.00    +0.000 C 
ENDROOT
TORSDOF 0
ENDMDL
MODEL 2
REMARK VINA RESULT:      -7.2      2.749      5.765
REMARK  Name = ligand_pdbs\MXD.pdb
REMARK  0 active torsions:
REMARK  status: ('A' for Active; 'I' for Inactive)
REMARK                            x       y       z     vdW  Elec       q    Type
REMARK                         _______ _______ _______ _____ _____    ______ ____
ROOT
ATOM      1  NAO MXD A1002      30.460   2.203   5.629  0.00  0.00    +0.000 NA
ATOM      2  CAE MXD A1002      29.132   2.113   5.411  0.00  0.00    +0.000 C 
ATOM      3  CAF MXD A1002      28.409   3.291   5.245  0.00  0.00    +0.000 C 
ATOM      4  NAC MXD A1002      28.463   0.863   5.340  0.00  0.00    +0.000 N 
ATOM      5  OAN MXD A1002      29.112  -0.199   5.496  0.00  0.00    +0.000 OA
ATOM      6  CAA MXD A1002      27.123   0.861   5.111  0.00  0.00    +0.000 C 
ATOM      7  NAM MXD A1002      26.436  -0.309   5.039  0.00  0.00    +0.000 NA
ATOM      8  NAB MXD A1002      26.420   2.025   4.959  0.00  0.00    +0.000 NA
ATOM      9  CAD MXD A1002      27.023   3.253   5.026  0.00  0.00    +0.000 C 
ATOM     10  NAI MXD A1002      26.318   4.489   4.835  0.00  0.00    +0.000 N 
ATOM     11  CAG MXD A1002      26.973   5.653   5.491  0.00  0.00    +0.000 C 
ATOM     12  CAK MXD A1002      24.872   4.490   5.147  0.00  0.00    +0.000 C 
ATOM     13  CAL MXD A1002      24.244   5.757   4.529  0.00  0.00    +0.000 C 
ATOM     14  CAJ MXD A1002      25.280   6.724   3.910  0.00  0.00    +0.000 C 
ATOM     15  CAH MXD A1002      26.519   6.945   4.802  0.00  0.00    +0.000 C 
ENDROOT
TORSDOF 0
ENDMDL
MODEL 3
REMARK VINA RESULT:      -7.1      1.440      2.948
REMARK  Name = ligand_pdbs\MXD.pdb
REMARK  0 active torsions:
REMARK  status: ('A' for Active; 'I' for Inactive)
REMARK                            x       y       z     vdW  Elec       q    Type
REMARK                         _______ _______ _______ _____ _____    ______ ____
ROOT
ATOM      1  NAO MXD A1002      27.286   7.006   5.220  0.00  0.00    +0.000 NA
ATOM      2  CAE MXD A1002      26.690   5.798   5.157  0.00  0.00    +0.000 C 
ATOM      3  CAF MXD A1002      27.473   4.665   5.358  0.00  0.00    +0.000 C 
ATOM      4  NAC MXD A1002      25.301   5.655   4.899  0.00  0.00    +0.000 N 
ATOM      5  OAN MXD A1002      24.596   6.675   4.710  0.00  0.00    +0.000 OA
ATOM      6  CAA MXD A1002      24.780   4.401   4.857  0.00  0.00    +0.000 C 
ATOM      7  NAM MXD A1002      23.457   4.211   4.610  0.00  0.00    +0.000 NA
ATOM      8  NAB MXD A1002      25.559   3.293   5.048  0.00  0.00    +0.000 NA
ATOM      9  CAD MXD A1002      26.904   3.384   5.292  0.00  0.00    +0.000 C 
ATOM     10  NAI MXD A1002      27.740   2.241   5.532  0.00  0.00    +0.000 N 
ATOM     11  CAG MXD A1002      29.174   2.477   5.206  0.00  0.00    +0.000 C 
ATOM     12  CAK MXD A1002      27.302   0.956   4.945  0.00  0.00    +0.000 C 
ATOM     13  CAL MXD A1002      28.101  -0.181   5.617  0.00  0.00    +0.000 C 
ATOM     14  CAJ MXD A1002      29.210   0.321   6.571  0.00  0.00    +0.000 C 
ATOM     15  CAH MXD A1002      30.041   1.481   5.984  0.00  0.00    +0.000 C 
ENDROOT
TORSDOF 0
ENDMDL
MODEL 4
REMARK VINA RESULT:      -7.1      2.847      5.251
REMARK  Name = ligand_pdbs\MXD.pdb
REMARK  0 active torsions:
REMARK  status: ('A' for Active; 'I' for Inactive)
REMARK                            x       y       z     vdW  Elec       q    Type
REMARK                         _______ _______ _______ _____ _____    ______ ____
ROOT
ATOM      1  NAO MXD A1002      26.116  -0.074   4.927  0.00  0.00    +0.000 NA
ATOM      2  CAE MXD A1002      26.909   0.983   5.193  0.00  0.00    +0.000 C 
ATOM      3  CAF MXD A1002      26.390   2.261   5.005  0.00  0.00    +0.000 C 
ATOM      4  NAC MXD A1002      28.242   0.828   5.658  0.00  0.00    +0.000 N 
ATOM      5  OAN MXD A1002      28.713  -0.323   5.821  0.00  0.00    +0.000 OA
ATOM      6  CAA MXD A1002      28.971   1.947   5.906  0.00  0.00    +0.000 C 
ATOM      7  NAM MXD A1002      30.252   1.852   6.349  0.00  0.00    +0.000 NA
ATOM      8  NAB MXD A1002      28.455   3.198   5.710  0.00  0.00    +0.000 NA
ATOM      9  CAD MXD A1002      27.178   3.395   5.256  0.00  0.00    +0.000 C 
ATOM     10  NAI MXD A1002      26.597   4.696   5.075  0.00  0.00    +0.000 N 
ATOM     11  CAG MXD A1002      25.491   4.718   4.079  0.00  0.00    +0.000 C 
ATOM     12  CAK MXD A1002      27.528   5.814   4.810  0.00  0.00    +0.000 C 
ATOM     13  CAL MXD A1002      26.767   7.139   5.023  0.00  0.00    +0.000 C 
ATOM     14  CAJ MXD A1002      25.256   6.950   5.293  0.00  0.00    +0.000 C 
ATOM     15  CAH MXD A1002      24.590   5.928   4.348  0.00  0.00    +0.000 C 
ENDROOT
TORSDOF 0
ENDMDL
MODEL 5
REMARK VINA RESULT:      -6.8      2.996      5.180
REMARK  Name = ligand_pdbs\MXD.pdb
REMARK  0 active torsions:
REMARK  status: ('A' for Active; 'I' for Inactive)
REMARK                            x       y       z     vdW  Elec       q    Type
REMARK                         _______ _______ _______ _____ _____    ______ ____
ROOT
ATOM      1  NAO MXD A1002      27.424  -1.140   5.386  0.00  0.00    +0.000 NA
ATOM      2  CAE MXD A1002      27.737   0.171   5.344  0.00  0.00    +0.000 C 
ATOM      3  CAF MXD A1002      26.718   1.084   5.087  0.00  0.00    +0.000 C 
ATOM      4  NAC MXD A1002      29.061   0.637   5.557  0.00  0.00    +0.000 N 
ATOM      5  OAN MXD A1002      29.981  -0.185   5.781  0.00  0.00    +0.000 OA
ATOM      6  CAA MXD A1002      29.289   1.976   5.501  0.00  0.00    +0.000 C 
ATOM      7  NAM MXD A1002      30.539   2.472   5.695  0.00  0.00    +0.000 NA
ATOM      8  NAB MXD A1002      28.282   2.865   5.240  0.00  0.00    +0.000 NA
ATOM      9  CAD MXD A1002      26.993   2.459   5.021  0.00  0.00    +0.000 C 
ATOM     10  NAI MXD A1002      25.910   3.371   4.780  0.00  0.00    +0.000 N 
ATOM     11  CAG MXD A1002      24.780   2.763   4.026  0.00  0.00    +0.000 C 
ATOM     12  CAK MXD A1002      26.257   4.681   4.187  0.00  0.00    +0.000 C 
ATOM     13  CAL MXD A1002      25.050   5.626   4.360  0.00  0.00    +0.000 C 
ATOM     14  CAJ MXD A1002      23.797   4.932   4.944  0.00  0.00    +0.000 C 
ATOM     15  CAH MXD A1002      23.501   3.563   4.296  0.00  0.00    +0.000 C 
ENDROOT
TORSDOF 0
ENDMDL
MODEL 6
REMARK VINA RESULT:      -6.8      0.872      2.560
REMARK  Name = ligand_pdbs\MXD.pdb
REMARK  0 active torsions:
REMARK  status: ('A' for Active; 'I' for Inactive)
REMARK                            x       y       z     vdW  Elec       q    Type
REMARK                         _______ _______ _______ _____ _____    ______ ____
ROOT
ATOM      1  NAO MXD A1002      27.553   6.424   5.009  0.00  0.00    +0.000 NA
ATOM      2  CAE MXD A1002      26.704   5.397   4.806  0.00  0.00    +0.000 C 
ATOM      3  CAF MXD A1002      27.241   4.134   4.570  0.00  0.00    +0.000 C 
ATOM      4  NAC MXD A1002      25.295   5.567   4.832  0.00  0.00    +0.000 N 
ATOM      5  OAN MXD A1002      24.810   6.705   5.037  0.00  0.00    +0.000 OA
ATOM      6  CAA MXD A1002      24.510   4.477   4.623  0.00  0.00    +0.000 C 
ATOM      7  NAM MXD A1002      23.156   4.588   4.634  0.00  0.00    +0.000 NA
ATOM      8  NAB MXD A1002      25.048   3.242   4.383  0.00  0.00    +0.000 NA
ATOM      9  CAD MXD A1002      26.400   3.033   4.341  0.00  0.00    +0.000 C 
ATOM     10  NAI MXD A1002      26.993   1.743   4.128  0.00  0.00    +0.000 N 
ATOM     11  CAG MXD A1002      28.367   1.808   3.559  0.00  0.00    +0.000 C 
ATOM     12  CAK MXD A1002      26.190   0.754   3.377  0.00  0.00    +0.000 C 
ATOM     13  CAL MXD A1002      26.820  -0.640   3.582  0.00  0.00    +0.000 C 
ATOM     14  CAJ MXD A1002      28.157  -0.607   4.359  0.00  0.00    +0.000 C 
ATOM     15  CAH MXD A1002      29.112   0.508   3.883  0.00  0.00    +0.000 C 
ENDROOT
TORSDOF 0
ENDMDL
MODEL 7
REMARK VINA RESULT:      -6.5      2.656      5.269
REMARK  Name = ligand_pdbs\MXD.pdb
REMARK  0 active torsions:
REMARK  status: ('A' for Active; 'I' for Inactive)
REMARK                            x       y       z     vdW  Elec       q    Type
REMARK                         _______ _______ _______ _____ _____    ______ ____
ROOT
ATOM      1  NAO MXD A1002      26.275   0.564   2.634  0.00  0.00    +0.000 NA
ATOM      2  CAE MXD A1002      26.822   1.360   3.575  0.00  0.00    +0.000 C 
ATOM      3  CAF MXD A1002      26.446   2.700   3.606  0.00  0.00    +0.000 C 
ATOM      4  NAC MXD A1002      27.756   0.871   4.527  0.00  0.00    +0.000 N 
ATOM      5  OAN MXD A1002      28.101  -0.335   4.495  0.00  0.00    +0.000 OA
ATOM      6  CAA MXD A1002      28.255   1.740   5.445  0.00  0.00    +0.000 C 
ATOM      7  NAM MXD A1002      29.154   1.321   6.374  0.00  0.00    +0.000 NA
ATOM      8  NAB MXD A1002      27.886   3.056   5.461  0.00  0.00    +0.000 NA
ATOM      9  CAD MXD A1002      26.994   3.573   4.559  0.00  0.00    +0.000 C 
ATOM     10  NAI MXD A1002      26.560   4.941   4.574  0.00  0.00    +0.000 N 
ATOM     11  CAG MXD A1002      26.087   5.429   3.250  0.00  0.00    +0.000 C 
ATOM     12  CAK MXD A1002      27.487   5.931   5.166  0.00  0.00    +0.000 C 
ATOM     13  CAL MXD A1002      26.703   7.234   5.428  0.00  0.00    +0.000 C 
ATOM     14  CAJ MXD A1002      25.256   7.208   4.880  0.00  0.00    +0.000 C 
ATOM     15  CAH MXD A1002      25.154   6.628   3.454  0.00  0.00    +0.000 C 
ENDROOT
TORSDOF 0
ENDMDL
MODEL 8
REMARK VINA RESULT:      -6.5      1.838      2.737
REMARK  Name = ligand_pdbs\MXD.pdb
REMARK  0 active torsions:
REMARK  status: ('A' for Active; 'I' for Inactive)
REMARK                            x       y       z     vdW  Elec       q    Type
REMARK                         _______ _______ _______ _____ _____    ______ ____
ROOT
ATOM      1  NAO MXD A1002      27.593   4.930   3.002  0.00  0.00    +0.000 NA
ATOM      2  CAE MXD A1002      27.173   4.033   3.918  0.00  0.00    +0.000 C 
ATOM      3  CAF MXD A1002      27.423   2.684   3.682  0.00  0.00    +0.000 C 
ATOM      4  NAC MXD A1002      26.497   4.426   5.103  0.00  0.00    +0.000 N 
ATOM      5  OAN MXD A1002      26.265   5.641   5.313  0.00  0.00    +0.000 OA
ATOM      6  CAA MXD A1002      26.113   3.457   5.976  0.00  0.00    +0.000 C 
ATOM      7  NAM MXD A1002      25.460   3.781   7.123  0.00  0.00    +0.000 NA
ATOM      8  NAB MXD A1002      26.355   2.134   5.731  0.00  0.00    +0.000 NA
ATOM      9  CAD MXD A1002      26.997   1.710   4.598  0.00  0.00    +0.000 C 
ATOM     10  NAI MXD A1002      27.297   0.331   4.331  0.00  0.00    +0.000 N 
ATOM     11  CAG MXD A1002      27.450   0.027   2.882  0.00  0.00    +0.000 C 
ATOM     12  CAK MXD A1002      26.419  -0.679   4.961  0.00  0.00    +0.000 C 
ATOM     13  CAL MXD A1002      27.116  -2.053   4.868  0.00  0.00    +0.000 C 
ATOM     14  CAJ MXD A1002      28.420  -2.031   4.037  0.00  0.00    +0.000 C 
ATOM     15  CAH MXD A1002      28.289  -1.245   2.716  0.00  0.00    +0.000 C 
ENDROOT
TORSDOF 0
ENDMDL
MODEL 9
REMARK VINA RESULT:      -6.5      3.157      5.958
REMARK  Name = ligand_pdbs\MXD.pdb
REMARK  0 active torsions:
REMARK  status: ('A' for Active; 'I' for Inactive)
REMARK                            x       y       z     vdW  Elec       q    Type
REMARK                         _______ _______ _______ _____ _____    ______ ____
ROOT
ATOM      1  NAO MXD A1002      30.043   0.367   2.780  0.00  0.00    +0.000 NA
ATOM      2  CAE MXD A1002      28.916   0.370   3.521  0.00  0.00    +0.000 C 
ATOM      3  CAF MXD A1002      28.238   1.575   3.684  0.00  0.00    +0.000 C 
ATOM      4  NAC MXD A1002      28.408  -0.810   4.126  0.00  0.00    +0.000 N 
ATOM      5  OAN MXD A1002      29.023  -1.894   3.986  0.00  0.00    +0.000 OA
ATOM      6  CAA MXD A1002      27.264  -0.719   4.853  0.00  0.00    +0.000 C 
ATOM      7  NAM MXD A1002      26.739  -1.819   5.455  0.00  0.00    +0.000 NA
ATOM      8  NAB MXD A1002      26.609   0.471   5.015  0.00  0.00    +0.000 NA
ATOM      9  CAD MXD A1002      27.066   1.634   4.456  0.00  0.00    +0.000 C 
ATOM     10  NAI MXD A1002      26.381   2.890   4.578  0.00  0.00    +0.000 N 
ATOM     11  CAG MXD A1002      27.275   4.071   4.423  0.00  0.00    +0.000 C 
ATOM     12  CAK MXD A1002      25.522   3.071   5.768  0.00  0.00    +0.000 C 
ATOM     13  CAL MXD A1002      24.607   4.289   5.526  0.00  0.00    +0.000 C 
ATOM     14  CAJ MXD A1002      24.930   5.057   4.222  0.00  0.00    +0.000 C 
ATOM     15  CAH MXD A1002      26.440   5.287   4.008  0.00  0.00    +0.000 C 
ENDROOT
TORSDOF 0
ENDMDL
