MODEL 1
REMARK VINA RESULT:      -3.5      0.000      0.000
REMARK  Name = ligand_pdbs\N59.pdb
REMARK  6 active torsions:
REMARK  status: ('A' for Active; 'I' for Inactive)
REMARK    1  A    between atoms: C26_7  and  S24_8
REMARK    2  A    between atoms: S24_8  and  N23_11
REMARK    3  A    between atoms: N23_11  and  C15_12
REMARK    4  A    between atoms: C17_14  and  C20_15
REMARK    5  A    between atoms: C14_20  and  N11_21
REMARK    6  A    between atoms: N08_26  and  C01_27
REMARK                            x       y       z     vdW  Elec       q    Type
REMARK                         _______ _______ _______ _____ _____    ______ ____
ROOT
ATOM      1  C15 N59 C1110      27.215   5.498   5.096  0.00  0.00    +0.000 A 
ATOM      2  C16 N59 C1110      26.946   6.868   5.217  0.00  0.00    +0.000 A 
ATOM      3  C17 N59 C1110      25.743   7.394   4.721  0.00  0.00    +0.000 A 
ATOM      4  C18 N59 C1110      24.803   6.569   4.111  0.00  0.00    +0.000 A 
ATOM      5  C19 N59 C1110      25.064   5.225   3.994  0.00  0.00    +0.000 A 
ATOM      6  C14 N59 C1110      26.255   4.705   4.475  0.00  0.00    +0.000 A 
ENDROOT
BRANCH   6   7
ATOM      7  N11 N59 C1110      26.439   3.346   4.320  0.00  0.00    +0.000 N 
ATOM      8  C10 N59 C1110      25.832   2.420   5.273  0.00  0.00    +0.000 C 
ATOM      9  C09 N59 C1110      25.575   1.180   4.447  0.00  0.00    +0.000 C 
ATOM     10  C12 N59 C1110      27.249   2.875   3.215  0.00  0.00    +0.000 C 
ATOM     11  C13 N59 C1110      27.969   1.667   3.740  0.00  0.00    +0.000 C 
ATOM     12  N08 N59 C1110      26.902   0.719   4.051  0.00  0.00    +0.000 N 
BRANCH  12  13
ATOM     13  C01 N59 C1110      27.121  -0.632   3.964  0.00  0.00    +0.000 A 
ATOM     14  C06 N59 C1110      28.409  -1.092   3.748  0.00  0.00    +0.000 A 
ATOM     15  C05 N59 C1110      28.630  -2.448   3.653  0.00  0.00    +0.000 A 
ATOM     16 CL7  N59 C1110      30.333  -2.983   3.394  0.00  0.00    +0.000 Cl
ATOM     17  C04 N59 C1110      27.550  -3.335   3.763  0.00  0.00    +0.000 A 
ATOM     18  C03 N59 C1110      26.250  -2.864   3.970  0.00  0.00    +0.000 A 
ATOM     19  C02 N59 C1110      26.039  -1.506   4.081  0.00  0.00    +0.000 A 
ENDBRANCH  12  13
ENDBRANCH   6   7
BRANCH   3  20
ATOM     20  C20 N59 C1110      25.403   8.853   4.825  0.00  0.00    +0.000 C 
ATOM     21  O22 N59 C1110      24.724   9.293   5.790  0.00  0.00    +0.000 OA
ATOM     22  O21 N59 C1110      25.832   9.596   3.911  0.00  0.00    +0.000 OA
ENDBRANCH   3  20
BRANCH   1  23
ATOM     23  N23 N59 C1110      28.350   4.879   5.542  0.00  0.00    +0.000 NA
BRANCH  23  24
ATOM     24  S24 N59 C1110      28.515   4.064   6.920  0.00  0.00    +0.000 S 
ATOM     25  O25 N59 C1110      27.217   3.784   7.465  0.00  0.00    +0.000 OA
ATOM     26  O27 N59 C1110      29.172   4.935   7.849  0.00  0.00    +0.000 OA
BRANCH  24  33
ATOM     27  F33 N59 C1110      28.796  -0.907   6.978  0.00  0.00    +0.000 F 
ATOM     28  C31 N59 C1110      29.395   0.260   6.704  0.00  0.00    +0.000 A 
ATOM     29  C30 N59 C1110      30.694   0.271   6.193  0.00  0.00    +0.000 A 
ATOM     30  C29 N59 C1110      31.309   1.487   5.912  0.00  0.00    +0.000 A 
ATOM     31  C28 N59 C1110      30.619   2.679   6.138  0.00  0.00    +0.000 A 
ATOM     32  C32 N59 C1110      28.707   1.452   6.932  0.00  0.00    +0.000 A 
ATOM     33  C26 N59 C1110      29.315   2.680   6.654  0.00  0.00    +0.000 A 
ENDBRANCH  24  33
ENDBRANCH  23  24
ENDBRANCH   1  23
TORSDOF 6
ENDMDL
MODEL 2
REMARK VINA RESULT:      -1.8      4.302      8.106
REMARK  Name = ligand_pdbs\N59.pdb
REMARK  6 active torsions:
REMARK  status: ('A' for Active; 'I' for Inactive)
REMARK    1  A    between atoms: C26_7  and  S24_8
REMARK    2  A    between atoms: S24_8  and  N23_11
REMARK    3  A    between atoms: N23_11  and  C15_12
REMARK    4  A    between atoms: C17_14  and  C20_15
REMARK    5  A    between atoms: C14_20  and  N11_21
REMARK    6  A    between atoms: N08_26  and  C01_27
REMARK                            x       y       z     vdW  Elec       q    Type
REMARK                         _______ _______ _______ _____ _____    ______ ____
ROOT
ATOM      1  C15 N59 C1110      27.753   1.022   3.278  0.00  0.00    +0.000 A 
ATOM      2  C16 N59 C1110      28.326  -0.250   3.142  0.00  0.00    +0.000 A 
ATOM      3  C17 N59 C1110      29.530  -0.552   3.796  0.00  0.00    +0.000 A 
ATOM      4  C18 N59 C1110      30.167   0.396   4.590  0.00  0.00    +0.000 A 
ATOM      5  C19 N59 C1110      29.606   1.643   4.727  0.00  0.00    +0.000 A 
ATOM      6  C14 N59 C1110      28.422   1.947   4.074  0.00  0.00    +0.000 A 
ENDROOT
BRANCH   6   7
ATOM      7  N11 N59 C1110      27.923   3.220   4.266  0.00  0.00    +0.000 N 
ATOM      8  C10 N59 C1110      27.522   3.645   5.604  0.00  0.00    +0.000 C 
ATOM      9  C09 N59 C1110      27.778   5.136   5.594  0.00  0.00    +0.000 C 
ATOM     10  C12 N59 C1110      27.798   4.098   3.120  0.00  0.00    +0.000 C 
ATOM     11  C13 N59 C1110      26.557   4.903   3.375  0.00  0.00    +0.000 C 
ATOM     12  N08 N59 C1110      26.862   5.661   4.586  0.00  0.00    +0.000 N 
BRANCH  12  13
ATOM     13  C01 N59 C1110      26.301   6.894   4.799  0.00  0.00    +0.000 A 
ATOM     14  C06 N59 C1110      26.632   7.938   3.951  0.00  0.00    +0.000 A 
ATOM     15  C05 N59 C1110      26.075   9.179   4.166  0.00  0.00    +0.000 A 
ATOM     16 CL7  N59 C1110      26.528  10.490   3.014  0.00  0.00    +0.000 Cl
ATOM     17  C04 N59 C1110      25.197   9.366   5.244  0.00  0.00    +0.000 A 
ATOM     18  C03 N59 C1110      24.876   8.312   6.102  0.00  0.00    +0.000 A 
ATOM     19  C02 N59 C1110      25.425   7.068   5.870  0.00  0.00    +0.000 A 
ENDBRANCH  12  13
ENDBRANCH   6   7
BRANCH   3  20
ATOM     20  C20 N59 C1110      30.187  -1.899   3.685  0.00  0.00    +0.000 C 
ATOM     21  O22 N59 C1110      31.435  -2.022   3.793  0.00  0.00    +0.000 OA
ATOM     22  O21 N59 C1110      29.428  -2.878   3.488  0.00  0.00    +0.000 OA
ENDBRANCH   3  20
BRANCH   1  23
ATOM     23  N23 N59 C1110      26.587   1.424   2.688  0.00  0.00    +0.000 NA
BRANCH  23  24
ATOM     24  S24 N59 C1110      25.096   1.069   3.179  0.00  0.00    +0.000 S 
ATOM     25  O25 N59 C1110      25.122  -0.157   3.926  0.00  0.00    +0.000 OA
ATOM     26  O27 N59 C1110      24.314   0.818   2.005  0.00  0.00    +0.000 OA
BRANCH  24  33
ATOM     27  F33 N59 C1110      24.803   3.512   7.507  0.00  0.00    +0.000 F 
ATOM     28  C31 N59 C1110      24.411   3.417   6.229  0.00  0.00    +0.000 A 
ATOM     29  C30 N59 C1110      23.511   4.348   5.707  0.00  0.00    +0.000 A 
ATOM     30  C29 N59 C1110      23.109   4.242   4.380  0.00  0.00    +0.000 A 
ATOM     31  C28 N59 C1110      23.613   3.210   3.585  0.00  0.00    +0.000 A 
ATOM     32  C32 N59 C1110      24.912   2.385   5.435  0.00  0.00    +0.000 A 
ATOM     33  C26 N59 C1110      24.514   2.268   4.100  0.00  0.00    +0.000 A 
ENDBRANCH  24  33
ENDBRANCH  23  24
ENDBRANCH   1  23
TORSDOF 6
ENDMDL
MODEL 3
REMARK VINA RESULT:      -1.7      2.004      3.683
REMARK  Name = ligand_pdbs\N59.pdb
REMARK  6 active torsions:
REMARK  status: ('A' for Active; 'I' for Inactive)
REMARK    1  A    between atoms: C26_7  and  S24_8
REMARK    2  A    between atoms: S24_8  and  N23_11
REMARK    3  A    between atoms: N23_11  and  C15_12
REMARK    4  A    between atoms: C17_14  and  C20_15
REMARK    5  A    between atoms: C14_20  and  N11_21
REMARK    6  A    between atoms: N08_26  and  C01_27
REMARK                            x       y       z     vdW  Elec       q    Type
REMARK                         _______ _______ _______ _____ _____    ______ ____
ROOT
ATOM      1  C15 N59 C1110      25.543   5.691   4.667  0.00  0.00    +0.000 A 
ATOM      2  C16 N59 C1110      24.898   6.928   4.792  0.00  0.00    +0.000 A 
ATOM      3  C17 N59 C1110      25.530   7.986   5.464  0.00  0.00    +0.000 A 
ATOM      4  C18 N59 C1110      26.802   7.826   6.006  0.00  0.00    +0.000 A 
ATOM      5  C19 N59 C1110      27.438   6.615   5.881  0.00  0.00    +0.000 A 
ATOM      6  C14 N59 C1110      26.810   5.566   5.227  0.00  0.00    +0.000 A 
ENDROOT
BRANCH   6   7
ATOM      7  N11 N59 C1110      27.518   4.383   5.144  0.00  0.00    +0.000 N 
ATOM      8  C10 N59 C1110      27.681   3.728   3.848  0.00  0.00    +0.000 C 
ATOM      9  C09 N59 C1110      29.011   3.020   3.975  0.00  0.00    +0.000 C 
ATOM     10  C12 N59 C1110      28.068   3.815   6.357  0.00  0.00    +0.000 C 
ATOM     11  C13 N59 C1110      27.955   2.328   6.183  0.00  0.00    +0.000 C 
ATOM     12  N08 N59 C1110      28.807   2.035   5.032  0.00  0.00    +0.000 N 
BRANCH  12  13
ATOM     13  C01 N59 C1110      29.446   0.826   4.925  0.00  0.00    +0.000 A 
ATOM     14  C06 N59 C1110      29.043  -0.063   3.944  0.00  0.00    +0.000 A 
ATOM     15  C05 N59 C1110      29.678  -1.280   3.839  0.00  0.00    +0.000 A 
ATOM     16 CL7  N59 C1110      29.122  -2.383   2.525  0.00  0.00    +0.000 Cl
ATOM     17  C04 N59 C1110      30.709  -1.602   4.734  0.00  0.00    +0.000 A 
ATOM     18  C03 N59 C1110      31.103  -0.705   5.730  0.00  0.00    +0.000 A 
ATOM     19  C02 N59 C1110      30.473   0.519   5.817  0.00  0.00    +0.000 A 
ENDBRANCH  12  13
ENDBRANCH   6   7
BRANCH   3  20
ATOM     20  C20 N59 C1110      24.886   9.333   5.627  0.00  0.00    +0.000 C 
ATOM     21  O22 N59 C1110      24.137   9.579   6.609  0.00  0.00    +0.000 OA
ATOM     22  O21 N59 C1110      25.137  10.185   4.742  0.00  0.00    +0.000 OA
ENDBRANCH   3  20
BRANCH   1  23
ATOM     23  N23 N59 C1110      25.022   4.595   4.036  0.00  0.00    +0.000 NA
BRANCH  23  24
ATOM     24  S24 N59 C1110      24.279   3.352   4.739  0.00  0.00    +0.000 S 
ATOM     25  O25 N59 C1110      22.878   3.398   4.426  0.00  0.00    +0.000 OA
ATOM     26  O27 N59 C1110      24.390   3.540   6.155  0.00  0.00    +0.000 OA
BRANCH  24  33
ATOM     27  F33 N59 C1110      26.275  -1.129   5.590  0.00  0.00    +0.000 F 
ATOM     28  C31 N59 C1110      25.883  -0.213   4.693  0.00  0.00    +0.000 A 
ATOM     29  C30 N59 C1110      26.028  -0.471   3.329  0.00  0.00    +0.000 A 
ATOM     30  C29 N59 C1110      25.620   0.486   2.405  0.00  0.00    +0.000 A 
ATOM     31  C28 N59 C1110      25.066   1.687   2.852  0.00  0.00    +0.000 A 
ATOM     32  C32 N59 C1110      25.332   0.989   5.139  0.00  0.00    +0.000 A 
ATOM     33  C26 N59 C1110      24.919   1.957   4.220  0.00  0.00    +0.000 A 
ENDBRANCH  24  33
ENDBRANCH  23  24
ENDBRANCH   1  23
TORSDOF 6
ENDMDL
MODEL 4
REMARK VINA RESULT:      -1.7      4.282      8.105
REMARK  Name = ligand_pdbs\N59.pdb
REMARK  6 active torsions:
REMARK  status: ('A' for Active; 'I' for Inactive)
REMARK    1  A    between atoms: C26_7  and  S24_8
REMARK    2  A    between atoms: S24_8  and  N23_11
REMARK    3  A    between atoms: N23_11  and  C15_12
REMARK    4  A    between atoms: C17_14  and  C20_15
REMARK    5  A    between atoms: C14_20  and  N11_21
REMARK    6  A    between atoms: N08_26  and  C01_27
REMARK                            x       y       z     vdW  Elec       q    Type
REMARK                         _______ _______ _______ _____ _____    ______ ____
ROOT
ATOM      1  C15 N59 C1110      27.715   0.918   3.277  0.00  0.00    +0.000 A 
ATOM      2  C16 N59 C1110      28.276  -0.363   3.188  0.00  0.00    +0.000 A 
ATOM      3  C17 N59 C1110      29.493  -0.644   3.829  0.00  0.00    +0.000 A 
ATOM      4  C18 N59 C1110      30.152   0.336   4.565  0.00  0.00    +0.000 A 
ATOM      5  C19 N59 C1110      29.602   1.591   4.656  0.00  0.00    +0.000 A 
ATOM      6  C14 N59 C1110      28.406   1.874   4.015  0.00  0.00    +0.000 A 
ENDROOT
BRANCH   6   7
ATOM      7  N11 N59 C1110      27.920   3.158   4.158  0.00  0.00    +0.000 N 
ATOM      8  C10 N59 C1110      27.566   3.653   5.486  0.00  0.00    +0.000 C 
ATOM      9  C09 N59 C1110      27.828   5.139   5.391  0.00  0.00    +0.000 C 
ATOM     10  C12 N59 C1110      27.761   3.978   2.974  0.00  0.00    +0.000 C 
ATOM     11  C13 N59 C1110      26.533   4.803   3.228  0.00  0.00    +0.000 C 
ATOM     12  N08 N59 C1110      26.882   5.619   4.389  0.00  0.00    +0.000 N 
BRANCH  12  13
ATOM     13  C01 N59 C1110      26.334   6.865   4.557  0.00  0.00    +0.000 A 
ATOM     14  C06 N59 C1110      26.101   7.330   5.840  0.00  0.00    +0.000 A 
ATOM     15  C05 N59 C1110      25.544   8.578   6.011  0.00  0.00    +0.000 A 
ATOM     16 CL7  N59 C1110      25.288   9.134   7.707  0.00  0.00    +0.000 Cl
ATOM     17  C04 N59 C1110      25.213   9.347   4.886  0.00  0.00    +0.000 A 
ATOM     18  C03 N59 C1110      25.440   8.868   3.594  0.00  0.00    +0.000 A 
ATOM     19  C02 N59 C1110      26.013   7.624   3.431  0.00  0.00    +0.000 A 
ENDBRANCH  12  13
ENDBRANCH   6   7
BRANCH   3  20
ATOM     20  C20 N59 C1110      30.138  -1.999   3.767  0.00  0.00    +0.000 C 
ATOM     21  O22 N59 C1110      31.383  -2.130   3.905  0.00  0.00    +0.000 OA
ATOM     22  O21 N59 C1110      29.374  -2.975   3.579  0.00  0.00    +0.000 OA
ENDBRANCH   3  20
BRANCH   1  23
ATOM     23  N23 N59 C1110      26.540   1.302   2.694  0.00  0.00    +0.000 NA
BRANCH  23  24
ATOM     24  S24 N59 C1110      25.058   1.008   3.250  0.00  0.00    +0.000 S 
ATOM     25  O25 N59 C1110      25.075  -0.190   4.040  0.00  0.00    +0.000 OA
ATOM     26  O27 N59 C1110      24.227   0.739   2.114  0.00  0.00    +0.000 OA
BRANCH  24  33
ATOM     27  F33 N59 C1110      24.912   3.558   7.523  0.00  0.00    +0.000 F 
ATOM     28  C31 N59 C1110      24.510   3.456   6.249  0.00  0.00    +0.000 A 
ATOM     29  C30 N59 C1110      23.659   4.422   5.710  0.00  0.00    +0.000 A 
ATOM     30  C29 N59 C1110      23.245   4.308   4.386  0.00  0.00    +0.000 A 
ATOM     31  C28 N59 C1110      23.691   3.233   3.613  0.00  0.00    +0.000 A 
ATOM     32  C32 N59 C1110      24.952   2.382   5.477  0.00  0.00    +0.000 A 
ATOM     33  C26 N59 C1110      24.543   2.257   4.146  0.00  0.00    +0.000 A 
ENDBRANCH  24  33
ENDBRANCH  23  24
ENDBRANCH   1  23
TORSDOF 6
ENDMDL
MODEL 5
REMARK VINA RESULT:      -1.0      2.352      3.930
REMARK  Name = ligand_pdbs\N59.pdb
REMARK  6 active torsions:
REMARK  status: ('A' for Active; 'I' for Inactive)
REMARK    1  A    between atoms: C26_7  and  S24_8
REMARK    2  A    between atoms: S24_8  and  N23_11
REMARK    3  A    between atoms: N23_11  and  C15_12
REMARK    4  A    between atoms: C17_14  and  C20_15
REMARK    5  A    between atoms: C14_20  and  N11_21
REMARK    6  A    between atoms: N08_26  and  C01_27
REMARK                            x       y       z     vdW  Elec       q    Type
REMARK                         _______ _______ _______ _____ _____    ______ ____
ROOT
ATOM      1  C15 N59 C1110      25.394   5.903   4.724  0.00  0.00    +0.000 A 
ATOM      2  C16 N59 C1110      24.771   7.148   4.891  0.00  0.00    +0.000 A 
ATOM      3  C17 N59 C1110      25.431   8.177   5.579  0.00  0.00    +0.000 A 
ATOM      4  C18 N59 C1110      26.708   7.983   6.096  0.00  0.00    +0.000 A 
ATOM      5  C19 N59 C1110      27.322   6.766   5.931  0.00  0.00    +0.000 A 
ATOM      6  C14 N59 C1110      26.667   5.744   5.261  0.00  0.00    +0.000 A 
ENDROOT
BRANCH   6   7
ATOM      7  N11 N59 C1110      27.354   4.552   5.136  0.00  0.00    +0.000 N 
ATOM      8  C10 N59 C1110      27.493   3.932   3.821  0.00  0.00    +0.000 C 
ATOM      9  C09 N59 C1110      28.812   3.199   3.913  0.00  0.00    +0.000 C 
ATOM     10  C12 N59 C1110      27.907   3.941   6.327  0.00  0.00    +0.000 C 
ATOM     11  C13 N59 C1110      27.768   2.462   6.112  0.00  0.00    +0.000 C 
ATOM     12  N08 N59 C1110      28.602   2.188   4.944  0.00  0.00    +0.000 N 
BRANCH  12  13
ATOM     13  C01 N59 C1110      29.219   0.972   4.796  0.00  0.00    +0.000 A 
ATOM     14  C06 N59 C1110      28.784   0.113   3.801  0.00  0.00    +0.000 A 
ATOM     15  C05 N59 C1110      29.398  -1.111   3.655  0.00  0.00    +0.000 A 
ATOM     16 CL7  N59 C1110      28.800  -2.173   2.326  0.00  0.00    +0.000 Cl
ATOM     17  C04 N59 C1110      30.439  -1.470   4.522  0.00  0.00    +0.000 A 
ATOM     18  C03 N59 C1110      30.866  -0.604   5.532  0.00  0.00    +0.000 A 
ATOM     19  C02 N59 C1110      30.258   0.627   5.661  0.00  0.00    +0.000 A 
ENDBRANCH  12  13
ENDBRANCH   6   7
BRANCH   3  20
ATOM     20  C20 N59 C1110      24.811   9.530   5.786  0.00  0.00    +0.000 C 
ATOM     21  O22 N59 C1110      24.074   9.760   6.780  0.00  0.00    +0.000 OA
ATOM     22  O21 N59 C1110      25.072  10.403   4.925  0.00  0.00    +0.000 OA
ENDBRANCH   3  20
BRANCH   1  23
ATOM     23  N23 N59 C1110      24.845   4.833   4.074  0.00  0.00    +0.000 NA
BRANCH  23  24
ATOM     24  S24 N59 C1110      24.079   3.592   4.756  0.00  0.00    +0.000 S 
ATOM     25  O25 N59 C1110      22.682   3.659   4.429  0.00  0.00    +0.000 OA
ATOM     26  O27 N59 C1110      24.177   3.764   6.175  0.00  0.00    +0.000 OA
BRANCH  24  33
ATOM     27  F33 N59 C1110      25.626   0.600   1.089  0.00  0.00    +0.000 F 
ATOM     28  C31 N59 C1110      25.444   0.782   2.405  0.00  0.00    +0.000 A 
ATOM     29  C30 N59 C1110      25.796  -0.228   3.301  0.00  0.00    +0.000 A 
ATOM     30  C29 N59 C1110      25.603  -0.032   4.664  0.00  0.00    +0.000 A 
ATOM     31  C28 N59 C1110      25.065   1.174   5.120  0.00  0.00    +0.000 A 
ATOM     32  C32 N59 C1110      24.904   1.986   2.860  0.00  0.00    +0.000 A 
ATOM     33  C26 N59 C1110      24.706   2.194   4.228  0.00  0.00    +0.000 A 
ENDBRANCH  24  33
ENDBRANCH  23  24
ENDBRANCH   1  23
TORSDOF 6
ENDMDL
MODEL 6
REMARK VINA RESULT:      -0.5      1.258      2.013
REMARK  Name = ligand_pdbs\N59.pdb
REMARK  6 active torsions:
REMARK  status: ('A' for Active; 'I' for Inactive)
REMARK    1  A    between atoms: C26_7  and  S24_8
REMARK    2  A    between atoms: S24_8  and  N23_11
REMARK    3  A    between atoms: N23_11  and  C15_12
REMARK    4  A    between atoms: C17_14  and  C20_15
REMARK    5  A    between atoms: C14_20  and  N11_21
REMARK    6  A    between atoms: N08_26  and  C01_27
REMARK                            x       y       z     vdW  Elec       q    Type
REMARK                         _______ _______ _______ _____ _____    ______ ____
ROOT
ATOM      1  C15 N59 C1110      27.415   5.501   5.151  0.00  0.00    +0.000 A 
ATOM      2  C16 N59 C1110      27.078   6.857   5.266  0.00  0.00    +0.000 A 
ATOM      3  C17 N59 C1110      25.922   7.350   4.641  0.00  0.00    +0.000 A 
ATOM      4  C18 N59 C1110      25.094   6.505   3.909  0.00  0.00    +0.000 A 
ATOM      5  C19 N59 C1110      25.419   5.175   3.799  0.00  0.00    +0.000 A 
ATOM      6  C14 N59 C1110      26.566   4.689   4.406  0.00  0.00    +0.000 A 
ENDROOT
BRANCH   6   7
ATOM      7  N11 N59 C1110      26.820   3.341   4.249  0.00  0.00    +0.000 N 
ATOM      8  C10 N59 C1110      27.780   2.899   3.241  0.00  0.00    +0.000 C 
ATOM      9  C09 N59 C1110      28.349   1.626   3.827  0.00  0.00    +0.000 C 
ATOM     10  C12 N59 C1110      26.109   2.396   5.086  0.00  0.00    +0.000 C 
ATOM     11  C13 N59 C1110      25.872   1.197   4.214  0.00  0.00    +0.000 C 
ATOM     12  N08 N59 C1110      27.214   0.712   3.897  0.00  0.00    +0.000 N 
BRANCH  12  13
ATOM     13  C01 N59 C1110      27.438  -0.622   3.671  0.00  0.00    +0.000 A 
ATOM     14  C06 N59 C1110      26.394  -1.516   3.831  0.00  0.00    +0.000 A 
ATOM     15  C05 N59 C1110      26.619  -2.857   3.610  0.00  0.00    +0.000 A 
ATOM     16 CL7  N59 C1110      25.212  -3.967   3.813  0.00  0.00    +0.000 Cl
ATOM     17  C04 N59 C1110      27.900  -3.292   3.242  0.00  0.00    +0.000 A 
ATOM     18  C03 N59 C1110      28.953  -2.386   3.093  0.00  0.00    +0.000 A 
ATOM     19  C02 N59 C1110      28.715  -1.043   3.299  0.00  0.00    +0.000 A 
ENDBRANCH  12  13
ENDBRANCH   6   7
BRANCH   3  20
ATOM     20  C20 N59 C1110      25.514   8.792   4.731  0.00  0.00    +0.000 C 
ATOM     21  O22 N59 C1110      25.909   9.632   3.880  0.00  0.00    +0.000 OA
ATOM     22  O21 N59 C1110      24.765   9.104   5.688  0.00  0.00    +0.000 OA
ENDBRANCH   3  20
BRANCH   1  23
ATOM     23  N23 N59 C1110      28.513   4.915   5.716  0.00  0.00    +0.000 NA
BRANCH  23  24
ATOM     24  S24 N59 C1110      28.547   4.072   7.086  0.00  0.00    +0.000 S 
ATOM     25  O25 N59 C1110      27.203   3.844   7.537  0.00  0.00    +0.000 OA
ATOM     26  O27 N59 C1110      29.177   4.897   8.074  0.00  0.00    +0.000 OA
BRANCH  24  33
ATOM     27  F33 N59 C1110      32.632   1.405   6.091  0.00  0.00    +0.000 F 
ATOM     28  C31 N59 C1110      31.320   1.411   6.362  0.00  0.00    +0.000 A 
ATOM     29  C30 N59 C1110      30.621   0.206   6.438  0.00  0.00    +0.000 A 
ATOM     30  C29 N59 C1110      29.258   0.222   6.718  0.00  0.00    +0.000 A 
ATOM     31  C28 N59 C1110      28.609   1.441   6.926  0.00  0.00    +0.000 A 
ATOM     32  C32 N59 C1110      30.670   2.629   6.567  0.00  0.00    +0.000 A 
ATOM     33  C26 N59 C1110      29.301   2.657   6.849  0.00  0.00    +0.000 A 
ENDBRANCH  24  33
ENDBRANCH  23  24
ENDBRANCH   1  23
TORSDOF 6
ENDMDL
