MODEL 1
REMARK VINA RESULT:      -4.4      0.000      0.000
REMARK  Name = ligand_pdbs\N5X.pdb
REMARK  5 active torsions:
REMARK  status: ('A' for Active; 'I' for Inactive)
REMARK    1  A    between atoms: C18_7  and  C17_8
REMARK    2  A    between atoms: N2_10  and  C11_11
REMARK    3  A    between atoms: C13_13  and  C16_14
REMARK    4  A    between atoms: C10_19  and  N1_20
REMARK    5  A    between atoms: N3_25  and  C5_26
REMARK                            x       y       z     vdW  Elec       q    Type
REMARK                         _______ _______ _______ _____ _____    ______ ____
ROOT
ATOM      1  C11 N5X C1105      26.391   5.056   4.894  0.00  0.00    +0.000 A 
ATOM      2  C12 N5X C1105      26.419   6.371   5.301  0.00  0.00    +0.000 A 
ATOM      3  C13 N5X C1105      25.353   7.168   4.986  0.00  0.00    +0.000 A 
ATOM      4  C14 N5X C1105      24.257   6.696   4.267  0.00  0.00    +0.000 A 
ATOM      5  C15 N5X C1105      24.234   5.372   3.848  0.00  0.00    +0.000 A 
ATOM      6  C10 N5X C1105      25.309   4.538   4.167  0.00  0.00    +0.000 A 
ENDROOT
BRANCH   6   7
ATOM      7  N1  N5X C1105      25.300   3.204   3.744  0.00  0.00    +0.000 N 
ATOM      8  C7  N5X C1105      25.828   2.840   2.442  0.00  0.00    +0.000 C 
ATOM      9  C6  N5X C1105      26.932   1.895   2.851  0.00  0.00    +0.000 C 
ATOM     10  C8  N5X C1105      24.814   2.142   4.634  0.00  0.00    +0.000 C 
ATOM     11  C9  N5X C1105      24.898   0.808   3.917  0.00  0.00    +0.000 C 
ATOM     12  N3  N5X C1105      26.275   0.724   3.451  0.00  0.00    +0.000 N 
BRANCH  12  13
ATOM     13  C5  N5X C1105      27.010  -0.456   3.614  0.00  0.00    +0.000 A 
ATOM     14  C   N5X C1105      26.266  -1.613   3.956  0.00  0.00    +0.000 A 
ATOM     15  C4  N5X C1105      28.413  -0.533   3.474  0.00  0.00    +0.000 A 
ATOM     16  C24 N5X C1105      29.349   0.602   3.122  0.00  0.00    +0.000 C 
ATOM     17  C3  N5X C1105      29.013  -1.776   3.657  0.00  0.00    +0.000 A 
ATOM     18  C2  N5X C1105      28.257  -2.916   3.983  0.00  0.00    +0.000 A 
ATOM     19  C1  N5X C1105      26.873  -2.852   4.153  0.00  0.00    +0.000 A 
ATOM     20  C25 N5X C1105      26.075  -4.094   4.518  0.00  0.00    +0.000 C 
ENDBRANCH  12  13
ENDBRANCH   6   7
BRANCH   1  23
ATOM     21  C17 N5X C1105      27.523   3.447   6.234  0.00  0.00    +0.000 C 
ATOM     22  O2  N5X C1105      26.691   3.360   7.131  0.00  0.00    +0.000 OA
ATOM     23  N2  N5X C1105      27.453   4.224   5.179  0.00  0.00    +0.000 NA
BRANCH  21  30
ATOM     24 CL1  N5X C1105      32.624   0.246   6.731  0.00  0.00    +0.000 Cl
ATOM     25  C21 N5X C1105      31.159   1.309   6.538  0.00  0.00    +0.000 A 
ATOM     26  C20 N5X C1105      29.925   0.707   6.760  0.00  0.00    +0.000 A 
ATOM     27  C19 N5X C1105      28.754   1.410   6.641  0.00  0.00    +0.000 A 
ATOM     28  C22 N5X C1105      31.193   2.673   6.177  0.00  0.00    +0.000 A 
ATOM     29  C23 N5X C1105      30.017   3.403   6.066  0.00  0.00    +0.000 A 
ATOM     30  C18 N5X C1105      28.810   2.740   6.279  0.00  0.00    +0.000 A 
ENDBRANCH  21  30
ENDBRANCH   1  23
BRANCH   3  31
ATOM     31  C16 N5X C1105      25.449   8.573   5.445  0.00  0.00    +0.000 C 
ATOM     32  O1  N5X C1105      24.990   8.924   6.553  0.00  0.00    +0.000 OA
ATOM     33  O3  N5X C1105      26.016   9.348   4.650  0.00  0.00    +0.000 OA
ENDBRANCH   3  31
TORSDOF 5
ENDMDL
MODEL 2
REMARK VINA RESULT:      -3.8      0.658      1.682
REMARK  Name = ligand_pdbs\N5X.pdb
REMARK  5 active torsions:
REMARK  status: ('A' for Active; 'I' for Inactive)
REMARK    1  A    between atoms: C18_7  and  C17_8
REMARK    2  A    between atoms: N2_10  and  C11_11
REMARK    3  A    between atoms: C13_13  and  C16_14
REMARK    4  A    between atoms: C10_19  and  N1_20
REMARK    5  A    between atoms: N3_25  and  C5_26
REMARK                            x       y       z     vdW  Elec       q    Type
REMARK                         _______ _______ _______ _____ _____    ______ ____
ROOT
ATOM      1  C11 N5X C1105      26.536   4.695   4.854  0.00  0.00    +0.000 A 
ATOM      2  C12 N5X C1105      26.541   6.033   5.175  0.00  0.00    +0.000 A 
ATOM      3  C13 N5X C1105      25.438   6.778   4.858  0.00  0.00    +0.000 A 
ATOM      4  C14 N5X C1105      24.328   6.229   4.219  0.00  0.00    +0.000 A 
ATOM      5  C15 N5X C1105      24.328   4.881   3.885  0.00  0.00    +0.000 A 
ATOM      6  C10 N5X C1105      25.441   4.100   4.209  0.00  0.00    +0.000 A 
ENDROOT
BRANCH   6   7
ATOM      7  N1  N5X C1105      25.456   2.742   3.870  0.00  0.00    +0.000 N 
ATOM      8  C7  N5X C1105      25.753   2.323   2.514  0.00  0.00    +0.000 C 
ATOM      9  C6  N5X C1105      26.985   1.483   2.752  0.00  0.00    +0.000 C 
ATOM     10  C8  N5X C1105      25.233   1.716   4.897  0.00  0.00    +0.000 C 
ATOM     11  C9  N5X C1105      25.283   0.343   4.253  0.00  0.00    +0.000 C 
ATOM     12  N3  N5X C1105      26.548   0.317   3.533  0.00  0.00    +0.000 N 
BRANCH  12  13
ATOM     13  C5  N5X C1105      27.390  -0.797   3.615  0.00  0.00    +0.000 A 
ATOM     14  C   N5X C1105      28.772  -0.552   3.410  0.00  0.00    +0.000 A 
ATOM     15  C4  N5X C1105      26.935  -2.110   3.866  0.00  0.00    +0.000 A 
ATOM     16  C24 N5X C1105      25.503  -2.540   4.097  0.00  0.00    +0.000 C 
ATOM     17  C3  N5X C1105      27.888  -3.124   3.929  0.00  0.00    +0.000 A 
ATOM     18  C2  N5X C1105      29.256  -2.859   3.737  0.00  0.00    +0.000 A 
ATOM     19  C1  N5X C1105      29.720  -1.572   3.460  0.00  0.00    +0.000 A 
ATOM     20  C25 N5X C1105      31.202  -1.310   3.242  0.00  0.00    +0.000 C 
ENDBRANCH  12  13
ENDBRANCH   6   7
BRANCH   1  23
ATOM     21  C17 N5X C1105      27.775   3.210   6.242  0.00  0.00    +0.000 C 
ATOM     22  O2  N5X C1105      26.986   3.159   7.180  0.00  0.00    +0.000 OA
ATOM     23  N2  N5X C1105      27.635   3.913   5.143  0.00  0.00    +0.000 NA
BRANCH  21  30
ATOM     24 CL1  N5X C1105      32.978   0.171   6.691  0.00  0.00    +0.000 Cl
ATOM     25  C21 N5X C1105      31.479   1.188   6.511  0.00  0.00    +0.000 A 
ATOM     26  C20 N5X C1105      30.267   0.549   6.756  0.00  0.00    +0.000 A 
ATOM     27  C19 N5X C1105      29.074   1.215   6.648  0.00  0.00    +0.000 A 
ATOM     28  C22 N5X C1105      31.466   2.548   6.138  0.00  0.00    +0.000 A 
ATOM     29  C23 N5X C1105      30.265   3.241   6.037  0.00  0.00    +0.000 A 
ATOM     30  C18 N5X C1105      29.083   2.543   6.274  0.00  0.00    +0.000 A 
ENDBRANCH  21  30
ENDBRANCH   1  23
BRANCH   3  31
ATOM     31  C16 N5X C1105      25.509   8.211   5.224  0.00  0.00    +0.000 C 
ATOM     32  O1  N5X C1105      25.018   8.631   6.293  0.00  0.00    +0.000 OA
ATOM     33  O3  N5X C1105      26.089   8.937   4.392  0.00  0.00    +0.000 OA
ENDBRANCH   3  31
TORSDOF 5
ENDMDL
