MODEL 1
REMARK VINA RESULT:      -1.5      0.000      0.000
REMARK  Name = ligand_pdbs\NA.pdb
REMARK  0 active torsions:
REMARK  status: ('A' for Active; 'I' for Inactive)
REMARK                            x       y       z     vdW  Elec       q    Type
REMARK                         _______ _______ _______ _____ _____    ______ ____
ROOT
ATOM      1 NA   NA  A 202      19.552   9.566   0.526  0.00  0.00    +0.000 Na
ENDROOT
TORSDOF 0
ENDMDL
MODEL 2
REMARK VINA RESULT:      -1.4      6.027      6.027
REMARK  Name = ligand_pdbs\NA.pdb
REMARK  0 active torsions:
REMARK  status: ('A' for Active; 'I' for Inactive)
REMARK                            x       y       z     vdW  Elec       q    Type
REMARK                         _______ _______ _______ _____ _____    ______ ____
ROOT
ATOM      1 NA   NA  A 202      22.483   9.267   5.784  0.00  0.00    +0.000 Na
ENDROOT
TORSDOF 0
ENDMDL
MODEL 3
REMARK VINA RESULT:      -1.1      7.125      7.125
REMARK  Name = ligand_pdbs\NA.pdb
REMARK  0 active torsions:
REMARK  status: ('A' for Active; 'I' for Inactive)
REMARK                            x       y       z     vdW  Elec       q    Type
REMARK                         _______ _______ _______ _____ _____    ______ ____
ROOT
ATOM      1 NA   NA  A 202      15.399   4.634   3.557  0.00  0.00    +0.000 Na
ENDROOT
TORSDOF 0
ENDMDL
MODEL 4
REMARK VINA RESULT:      -1.1     14.907     14.907
REMARK  Name = ligand_pdbs\NA.pdb
REMARK  0 active torsions:
REMARK  status: ('A' for Active; 'I' for Inactive)
REMARK                            x       y       z     vdW  Elec       q    Type
REMARK                         _______ _______ _______ _____ _____    ______ ____
ROOT
ATOM      1 NA   NA  A 202      31.315   0.517   1.924  0.00  0.00    +0.000 Na
ENDROOT
TORSDOF 0
ENDMDL
MODEL 5
REMARK VINA RESULT:      -1.1      4.544      4.544
REMARK  Name = ligand_pdbs\NA.pdb
REMARK  0 active torsions:
REMARK  status: ('A' for Active; 'I' for Inactive)
REMARK                            x       y       z     vdW  Elec       q    Type
REMARK                         _______ _______ _______ _____ _____    ______ ____
ROOT
ATOM      1 NA   NA  A 202      23.510  11.789   0.322  0.00  0.00    +0.000 Na
ENDROOT
TORSDOF 0
ENDMDL
MODEL 6
REMARK VINA RESULT:      -1.0     12.839     12.839
REMARK  Name = ligand_pdbs\NA.pdb
REMARK  0 active torsions:
REMARK  status: ('A' for Active; 'I' for Inactive)
REMARK                            x       y       z     vdW  Elec       q    Type
REMARK                         _______ _______ _______ _____ _____    ______ ____
ROOT
ATOM      1 NA   NA  A 202      18.897   0.280   9.368  0.00  0.00    +0.000 Na
ENDROOT
TORSDOF 0
ENDMDL
MODEL 7
REMARK VINA RESULT:      -1.0      6.948      6.948
REMARK  Name = ligand_pdbs\NA.pdb
REMARK  0 active torsions:
REMARK  status: ('A' for Active; 'I' for Inactive)
REMARK                            x       y       z     vdW  Elec       q    Type
REMARK                         _______ _______ _______ _____ _____    ______ ____
ROOT
ATOM      1 NA   NA  A 202      25.723  10.861   3.443  0.00  0.00    +0.000 Na
ENDROOT
TORSDOF 0
ENDMDL
MODEL 8
REMARK VINA RESULT:      -1.0     16.735     16.735
REMARK  Name = ligand_pdbs\NA.pdb
REMARK  0 active torsions:
REMARK  status: ('A' for Active; 'I' for Inactive)
REMARK                            x       y       z     vdW  Elec       q    Type
REMARK                         _______ _______ _______ _____ _____    ______ ____
ROOT
ATOM      1 NA   NA  A 202      32.375  -1.132   1.618  0.00  0.00    +0.000 Na
ENDROOT
TORSDOF 0
ENDMDL
MODEL 9
REMARK VINA RESULT:      -1.0     16.215     16.215
REMARK  Name = ligand_pdbs\NA.pdb
REMARK  0 active torsions:
REMARK  status: ('A' for Active; 'I' for Inactive)
REMARK                            x       y       z     vdW  Elec       q    Type
REMARK                         _______ _______ _______ _____ _____    ______ ____
ROOT
ATOM      1 NA   NA  A 202      27.188  -3.938   5.243  0.00  0.00    +0.000 Na
ENDROOT
TORSDOF 0
ENDMDL
