MODEL 1
REMARK VINA RESULT:      -2.4      0.000      0.000
REMARK  Name = ligand_pdbs\NO3.pdb
REMARK  0 active torsions:
REMARK  status: ('A' for Active; 'I' for Inactive)
REMARK                            x       y       z     vdW  Elec       q    Type
REMARK                         _______ _______ _______ _____ _____    ______ ____
ROOT
ATOM      1  N   NO3 A 304      23.032  11.160  11.150  0.00  0.00    +0.000 N 
ATOM      2  O1  NO3 A 304      22.731  12.191  10.553  0.00  0.00    +0.000 OA
ATOM      3  O2  NO3 A 304      23.708  10.140  10.464  0.00  0.00    +0.000 OA
ATOM      4  O3  NO3 A 304      22.711  11.001  12.508  0.00  0.00    +0.000 OA
ENDROOT
TORSDOF 0
ENDMDL
MODEL 2
REMARK VINA RESULT:      -2.4      0.169      2.036
REMARK  Name = ligand_pdbs\NO3.pdb
REMARK  0 active torsions:
REMARK  status: ('A' for Active; 'I' for Inactive)
REMARK                            x       y       z     vdW  Elec       q    Type
REMARK                         _______ _______ _______ _____ _____    ______ ____
ROOT
ATOM      1  N   NO3 A 304      23.021  11.193  11.137  0.00  0.00    +0.000 N 
ATOM      2  O1  NO3 A 304      23.507  10.233  10.543  0.00  0.00    +0.000 OA
ATOM      3  O2  NO3 A 304      22.756  11.090  12.510  0.00  0.00    +0.000 OA
ATOM      4  O3  NO3 A 304      22.737  12.387  10.454  0.00  0.00    +0.000 OA
ENDROOT
TORSDOF 0
ENDMDL
MODEL 3
REMARK VINA RESULT:      -2.3      8.584      9.076
REMARK  Name = ligand_pdbs\NO3.pdb
REMARK  0 active torsions:
REMARK  status: ('A' for Active; 'I' for Inactive)
REMARK                            x       y       z     vdW  Elec       q    Type
REMARK                         _______ _______ _______ _____ _____    ______ ____
ROOT
ATOM      1  N   NO3 A 304      23.858   4.866   4.940  0.00  0.00    +0.000 N 
ATOM      2  O1  NO3 A 304      24.442   4.277   5.847  0.00  0.00    +0.000 OA
ATOM      3  O2  NO3 A 304      22.769   4.249   4.307  0.00  0.00    +0.000 OA
ATOM      4  O3  NO3 A 304      24.270   6.148   4.540  0.00  0.00    +0.000 OA
ENDROOT
TORSDOF 0
ENDMDL
MODEL 4
REMARK VINA RESULT:      -2.3      8.586      9.096
REMARK  Name = ligand_pdbs\NO3.pdb
REMARK  0 active torsions:
REMARK  status: ('A' for Active; 'I' for Inactive)
REMARK                            x       y       z     vdW  Elec       q    Type
REMARK                         _______ _______ _______ _____ _____    ______ ____
ROOT
ATOM      1  N   NO3 A 304      23.853   4.858   4.942  0.00  0.00    +0.000 N 
ATOM      2  O1  NO3 A 304      24.455   4.284   5.846  0.00  0.00    +0.000 OA
ATOM      3  O2  NO3 A 304      24.268   6.138   4.544  0.00  0.00    +0.000 OA
ATOM      4  O3  NO3 A 304      22.763   4.242   4.304  0.00  0.00    +0.000 OA
ENDROOT
TORSDOF 0
ENDMDL
MODEL 5
REMARK VINA RESULT:      -2.3      8.618      8.978
REMARK  Name = ligand_pdbs\NO3.pdb
REMARK  0 active torsions:
REMARK  status: ('A' for Active; 'I' for Inactive)
REMARK                            x       y       z     vdW  Elec       q    Type
REMARK                         _______ _______ _______ _____ _____    ______ ____
ROOT
ATOM      1  N   NO3 A 304      23.871   4.834   4.951  0.00  0.00    +0.000 N 
ATOM      2  O1  NO3 A 304      24.231   5.963   4.623  0.00  0.00    +0.000 OA
ATOM      3  O2  NO3 A 304      22.768   4.250   4.311  0.00  0.00    +0.000 OA
ATOM      4  O3  NO3 A 304      24.558   4.127   5.952  0.00  0.00    +0.000 OA
ENDROOT
TORSDOF 0
ENDMDL
MODEL 6
REMARK VINA RESULT:      -2.2      1.737      2.546
REMARK  Name = ligand_pdbs\NO3.pdb
REMARK  0 active torsions:
REMARK  status: ('A' for Active; 'I' for Inactive)
REMARK                            x       y       z     vdW  Elec       q    Type
REMARK                         _______ _______ _______ _____ _____    ______ ____
ROOT
ATOM      1  N   NO3 A 304      24.022  10.866   9.507  0.00  0.00    +0.000 N 
ATOM      2  O1  NO3 A 304      24.164  10.315   8.418  0.00  0.00    +0.000 OA
ATOM      3  O2  NO3 A 304      23.724  10.090  10.637  0.00  0.00    +0.000 OA
ATOM      4  O3  NO3 A 304      24.161  12.259   9.627  0.00  0.00    +0.000 OA
ENDROOT
TORSDOF 0
ENDMDL
MODEL 7
REMARK VINA RESULT:      -2.1      1.431      2.202
REMARK  Name = ligand_pdbs\NO3.pdb
REMARK  0 active torsions:
REMARK  status: ('A' for Active; 'I' for Inactive)
REMARK                            x       y       z     vdW  Elec       q    Type
REMARK                         _______ _______ _______ _____ _____    ______ ____
ROOT
ATOM      1  N   NO3 A 304      23.284  12.205  10.319  0.00  0.00    +0.000 N 
ATOM      2  O1  NO3 A 304      24.490  12.443  10.310  0.00  0.00    +0.000 OA
ATOM      3  O2  NO3 A 304      22.388  13.179   9.855  0.00  0.00    +0.000 OA
ATOM      4  O3  NO3 A 304      22.802  10.970  10.783  0.00  0.00    +0.000 OA
ENDROOT
TORSDOF 0
ENDMDL
MODEL 8
REMARK VINA RESULT:      -2.1      8.814      9.331
REMARK  Name = ligand_pdbs\NO3.pdb
REMARK  0 active torsions:
REMARK  status: ('A' for Active; 'I' for Inactive)
REMARK                            x       y       z     vdW  Elec       q    Type
REMARK                         _______ _______ _______ _____ _____    ______ ____
ROOT
ATOM      1  N   NO3 A 304      27.330   5.801   4.915  0.00  0.00    +0.000 N 
ATOM      2  O1  NO3 A 304      27.622   6.938   5.278  0.00  0.00    +0.000 OA
ATOM      3  O2  NO3 A 304      27.927   5.273   3.760  0.00  0.00    +0.000 OA
ATOM      4  O3  NO3 A 304      26.414   5.029   5.649  0.00  0.00    +0.000 OA
ENDROOT
TORSDOF 0
ENDMDL
MODEL 9
REMARK VINA RESULT:      -2.1      8.819      9.475
REMARK  Name = ligand_pdbs\NO3.pdb
REMARK  0 active torsions:
REMARK  status: ('A' for Active; 'I' for Inactive)
REMARK                            x       y       z     vdW  Elec       q    Type
REMARK                         _______ _______ _______ _____ _____    ______ ____
ROOT
ATOM      1  N   NO3 A 304      27.340   5.799   4.907  0.00  0.00    +0.000 N 
ATOM      2  O1  NO3 A 304      27.626   6.934   5.282  0.00  0.00    +0.000 OA
ATOM      3  O2  NO3 A 304      26.418   5.042   5.645  0.00  0.00    +0.000 OA
ATOM      4  O3  NO3 A 304      27.923   5.261   3.747  0.00  0.00    +0.000 OA
ENDROOT
TORSDOF 0
ENDMDL
