MODEL 1
REMARK VINA RESULT:       1.1      0.000      0.000
REMARK  Name = ligand_pdbs\NXF.pdb
REMARK  5 active torsions:
REMARK  status: ('A' for Active; 'I' for Inactive)
REMARK    1  A    between atoms: C13_3  and  C17_5
REMARK    2  A    between atoms: C_7  and  C12_10
REMARK    3  A    between atoms: C16_12  and  C1B_16
REMARK    4  A    between atoms: C1H_22  and  C1K_24
REMARK    5  A    between atoms: C1L_25  and  C1N_27
REMARK                            x       y       z     vdW  Elec       q    Type
REMARK                         _______ _______ _______ _____ _____    ______ ____
ROOT
ATOM      1  C1B NXF A 801      27.842   3.619   5.462  0.00  0.00    +0.000 A 
ATOM      2  C1E NXF A 801      26.757   2.814   5.134  0.00  0.00    +0.000 A 
ATOM      3  C1F NXF A 801      27.650   5.003   5.463  0.00  0.00    +0.000 A 
ATOM      4  C1G NXF A 801      25.493   3.355   4.812  0.00  0.00    +0.000 A 
ATOM      5  C1H NXF A 801      26.428   5.587   5.161  0.00  0.00    +0.000 A 
ATOM      6  C1I NXF A 801      25.313   4.764   4.819  0.00  0.00    +0.000 A 
ATOM      7  C1L NXF A 801      24.369   2.495   4.471  0.00  0.00    +0.000 C 
ATOM      8  C1M NXF A 801      23.972   5.246   4.474  0.00  0.00    +0.000 C 
ATOM      9  N13 NXF A 801      23.204   2.963   4.172  0.00  0.00    +0.000 NA
ATOM     10  N14 NXF A 801      23.004   4.317   4.173  0.00  0.00    +0.000 NA
ATOM     11  O1  NXF A 801      23.549   6.404   4.405  0.00  0.00    +0.000 OA
ENDROOT
BRANCH   1  15
ATOM     12  N1  NXF A 801      31.278   2.958   6.467  0.00  0.00    +0.000 NA
ATOM     13  N   NXF A 801      30.831   1.717   6.137  0.00  0.00    +0.000 N 
ATOM     14  C12 NXF A 801      29.534   1.718   5.725  0.00  0.00    +0.000 A 
ATOM     15  C16 NXF A 801      29.140   3.039   5.798  0.00  0.00    +0.000 A 
ATOM     16  C1A NXF A 801      31.691   0.550   6.239  0.00  0.00    +0.000 C 
ATOM     17  C1C NXF A 801      30.255   3.742   6.255  0.00  0.00    +0.000 A 
BRANCH  14  20
ATOM     18  C13 NXF A 801      28.908  -0.139   4.104  0.00  0.00    +0.000 A 
ATOM     19  C15 NXF A 801      26.606  -2.659   5.432  0.00  0.00    +0.000 A 
ATOM     20  C   NXF A 801      28.860   0.498   5.323  0.00  0.00    +0.000 A 
ATOM     21  C1  NXF A 801      27.450  -1.555   5.252  0.00  0.00    +0.000 A 
ATOM     22  C14 NXF A 801      28.110  -1.313   4.048  0.00  0.00    +0.000 A 
ATOM     23  C18 NXF A 801      27.913  -2.223   2.985  0.00  0.00    +0.000 A 
ATOM     24  C19 NXF A 801      26.422  -3.536   4.381  0.00  0.00    +0.000 A 
ATOM     25  C1D NXF A 801      27.081  -3.316   3.154  0.00  0.00    +0.000 A 
ATOM     26  S   NXF A 801      27.817  -0.339   6.428  0.00  0.00    +0.000 S 
BRANCH  18  28
ATOM     27  N12 NXF A 801      30.321   0.703   2.126  0.00  0.00    +0.000 NA
ATOM     28  C17 NXF A 801      29.693   0.336   3.007  0.00  0.00    +0.000 C 
ENDBRANCH  18  28
ENDBRANCH  14  20
ENDBRANCH   1  15
BRANCH   5  30
ATOM     29  O   NXF A 801      25.568   7.662   6.204  0.00  0.00    +0.000 OA
ATOM     30  C1K NXF A 801      26.455   7.115   5.209  0.00  0.00    +0.000 C 
ATOM     31  C1O NXF A 801      26.183   7.920   3.943  0.00  0.00    +0.000 C 
ATOM     32  C1P NXF A 801      25.186   9.020   5.840  0.00  0.00    +0.000 C 
ATOM     33  C1Q NXF A 801      25.764   9.310   4.447  0.00  0.00    +0.000 C 
ENDBRANCH   5  30
BRANCH   7  34
ATOM     34  C1N NXF A 801      24.518   0.977   4.454  0.00  0.00    +0.000 C 
ATOM     35  N15 NXF A 801      25.122   0.357   3.196  0.00  0.00    +0.000 NA
ENDBRANCH   7  34
TORSDOF 5
ENDMDL
MODEL 2
REMARK VINA RESULT:       2.1      1.063      1.683
REMARK  Name = ligand_pdbs\NXF.pdb
REMARK  5 active torsions:
REMARK  status: ('A' for Active; 'I' for Inactive)
REMARK    1  A    between atoms: C13_3  and  C17_5
REMARK    2  A    between atoms: C_7  and  C12_10
REMARK    3  A    between atoms: C16_12  and  C1B_16
REMARK    4  A    between atoms: C1H_22  and  C1K_24
REMARK    5  A    between atoms: C1L_25  and  C1N_27
REMARK                            x       y       z     vdW  Elec       q    Type
REMARK                         _______ _______ _______ _____ _____    ______ ____
ROOT
ATOM      1  C1B NXF A 801      27.775   3.838   5.466  0.00  0.00    +0.000 A 
ATOM      2  C1E NXF A 801      26.688   3.028   5.156  0.00  0.00    +0.000 A 
ATOM      3  C1F NXF A 801      27.576   5.221   5.467  0.00  0.00    +0.000 A 
ATOM      4  C1G NXF A 801      25.417   3.563   4.852  0.00  0.00    +0.000 A 
ATOM      5  C1H NXF A 801      26.348   5.799   5.182  0.00  0.00    +0.000 A 
ATOM      6  C1I NXF A 801      25.231   4.971   4.858  0.00  0.00    +0.000 A 
ATOM      7  C1L NXF A 801      24.292   2.697   4.530  0.00  0.00    +0.000 C 
ATOM      8  C1M NXF A 801      23.884   5.447   4.533  0.00  0.00    +0.000 C 
ATOM      9  N13 NXF A 801      23.121   3.159   4.247  0.00  0.00    +0.000 NA
ATOM     10  N14 NXF A 801      22.915   4.514   4.248  0.00  0.00    +0.000 NA
ATOM     11  O1  NXF A 801      23.455   6.603   4.468  0.00  0.00    +0.000 OA
ENDROOT
BRANCH   1  15
ATOM     12  N1  NXF A 801      31.198   3.176   6.512  0.00  0.00    +0.000 NA
ATOM     13  N   NXF A 801      30.802   1.965   6.041  0.00  0.00    +0.000 N 
ATOM     14  C12 NXF A 801      29.518   1.971   5.588  0.00  0.00    +0.000 A 
ATOM     15  C16 NXF A 801      29.080   3.264   5.783  0.00  0.00    +0.000 A 
ATOM     16  C1A NXF A 801      31.696   0.818   6.051  0.00  0.00    +0.000 C 
ATOM     17  C1C NXF A 801      30.157   3.948   6.349  0.00  0.00    +0.000 A 
BRANCH  14  20
ATOM     18  C13 NXF A 801      28.517  -0.365   5.701  0.00  0.00    +0.000 A 
ATOM     19  C15 NXF A 801      27.386  -1.733   2.497  0.00  0.00    +0.000 A 
ATOM     20  C   NXF A 801      28.897   0.780   5.039  0.00  0.00    +0.000 A 
ATOM     21  C1  NXF A 801      27.907  -0.928   3.519  0.00  0.00    +0.000 A 
ATOM     22  C14 NXF A 801      27.948  -1.348   4.848  0.00  0.00    +0.000 A 
ATOM     23  C18 NXF A 801      27.441  -2.630   5.158  0.00  0.00    +0.000 A 
ATOM     24  C19 NXF A 801      26.898  -2.985   2.818  0.00  0.00    +0.000 A 
ATOM     25  C1D NXF A 801      26.925  -3.433   4.155  0.00  0.00    +0.000 A 
ATOM     26  S   NXF A 801      28.568   0.661   3.340  0.00  0.00    +0.000 S 
BRANCH  18  28
ATOM     27  N12 NXF A 801      28.810  -0.681   8.237  0.00  0.00    +0.000 NA
ATOM     28  C17 NXF A 801      28.674  -0.538   7.112  0.00  0.00    +0.000 C 
ENDBRANCH  18  28
ENDBRANCH  14  20
ENDBRANCH   1  15
BRANCH   5  30
ATOM     29  O   NXF A 801      25.472   7.874   6.213  0.00  0.00    +0.000 OA
ATOM     30  C1K NXF A 801      26.368   7.328   5.227  0.00  0.00    +0.000 C 
ATOM     31  C1O NXF A 801      26.104   8.129   3.957  0.00  0.00    +0.000 C 
ATOM     32  C1P NXF A 801      25.088   9.230   5.843  0.00  0.00    +0.000 C 
ATOM     33  C1Q NXF A 801      25.676   9.518   4.454  0.00  0.00    +0.000 C 
ENDBRANCH   5  30
BRANCH   7  34
ATOM     34  C1N NXF A 801      24.448   1.180   4.513  0.00  0.00    +0.000 C 
ATOM     35  N15 NXF A 801      24.810   0.538   3.176  0.00  0.00    +0.000 NA
ENDBRANCH   7  34
TORSDOF 5
ENDMDL
