MODEL 1
REMARK VINA RESULT:      -7.3      0.000      0.000
REMARK  Name = ligand_pdbs\ODN.pdb
REMARK  0 active torsions:
REMARK  status: ('A' for Active; 'I' for Inactive)
REMARK                            x       y       z     vdW  Elec       q    Type
REMARK                         _______ _______ _______ _____ _____    ______ ____
ROOT
ATOM      1  O3  ODN C1105      29.091   2.129   3.097  0.00  0.00    +0.000 OA
ATOM      2  C17 ODN C1105      28.533   1.435   3.916  0.00  0.00    +0.000 C 
ATOM      3  C10 ODN C1105      27.612   1.962   4.948  0.00  0.00    +0.000 C 
ATOM      4  C18 ODN C1105      27.965   3.365   5.382  0.00  0.00    +0.000 C 
ATOM      5  O4  ODN C1105      29.382   3.373   5.579  0.00  0.00    +0.000 OA
ATOM      6  O1  ODN C1105      27.175   3.607   6.558  0.00  0.00    +0.000 OA
ATOM      7  C8  ODN C1105      25.771   3.380   6.377  0.00  0.00    +0.000 C 
ATOM      8  C19 ODN C1105      27.645   4.441   4.350  0.00  0.00    +0.000 C 
ATOM      9  O5  ODN C1105      28.429   4.295   3.159  0.00  0.00    +0.000 OA
ATOM     10  C6  ODN C1105      26.128   4.412   4.097  0.00  0.00    +0.000 C 
ATOM     11  C3  ODN C1105      25.507   5.796   4.403  0.00  0.00    +0.000 C 
ATOM     12  C5  ODN C1105      25.646   6.712   3.181  0.00  0.00    +0.000 C 
ATOM     13  C4  ODN C1105      26.176   6.509   5.580  0.00  0.00    +0.000 C 
ATOM     14  C2  ODN C1105      24.020   5.675   4.776  0.00  0.00    +0.000 C 
ATOM     15  C1  ODN C1105      23.325   4.456   4.181  0.00  0.00    +0.000 C 
ATOM     16  C13 ODN C1105      28.683  -0.031   4.048  0.00  0.00    +0.000 C 
ATOM     17  C14 ODN C1105      28.262  -0.671   2.747  0.00  0.00    +0.000 C 
ATOM     18  C12 ODN C1105      27.809  -0.344   5.262  0.00  0.00    +0.000 C 
ATOM     19  C11 ODN C1105      27.859   0.935   6.043  0.00  0.00    +0.000 C 
ATOM     20  O2  ODN C1105      29.161   1.079   6.612  0.00  0.00    +0.000 OA
ATOM     21  C15 ODN C1105      26.338  -0.647   4.995  0.00  0.00    +0.000 C 
ATOM     22  C16 ODN C1105      25.460   0.605   4.806  0.00  0.00    +0.000 C 
ATOM     23  C9  ODN C1105      26.179   1.918   4.422  0.00  0.00    +0.000 C 
ATOM     24  C7  ODN C1105      25.481   3.230   4.877  0.00  0.00    +0.000 C 
ATOM     25  C   ODN C1105      23.958   3.139   4.629  0.00  0.00    +0.000 C 
ATOM     26  O   ODN C1105      23.273   2.684   5.807  0.00  0.00    +0.000 OA
ENDROOT
TORSDOF 0
ENDMDL
MODEL 2
REMARK VINA RESULT:      -7.1      1.837      3.575
REMARK  Name = ligand_pdbs\ODN.pdb
REMARK  0 active torsions:
REMARK  status: ('A' for Active; 'I' for Inactive)
REMARK                            x       y       z     vdW  Elec       q    Type
REMARK                         _______ _______ _______ _____ _____    ______ ____
ROOT
ATOM      1  O3  ODN C1105      25.291  -0.799   3.590  0.00  0.00    +0.000 OA
ATOM      2  C17 ODN C1105      26.495  -0.774   3.709  0.00  0.00    +0.000 C 
ATOM      3  C10 ODN C1105      27.289   0.474   3.752  0.00  0.00    +0.000 C 
ATOM      4  C18 ODN C1105      26.668   1.589   2.944  0.00  0.00    +0.000 C 
ATOM      5  O4  ODN C1105      26.276   1.003   1.699  0.00  0.00    +0.000 OA
ATOM      6  O1  ODN C1105      27.682   2.605   2.859  0.00  0.00    +0.000 OA
ATOM      7  C8  ODN C1105      28.207   3.016   4.128  0.00  0.00    +0.000 C 
ATOM      8  C19 ODN C1105      25.419   2.199   3.571  0.00  0.00    +0.000 C 
ATOM      9  O5  ODN C1105      24.342   1.258   3.651  0.00  0.00    +0.000 OA
ATOM     10  C6  ODN C1105      25.820   2.794   4.932  0.00  0.00    +0.000 C 
ATOM     11  C3  ODN C1105      25.482   4.303   4.978  0.00  0.00    +0.000 C 
ATOM     12  C5  ODN C1105      24.015   4.498   5.378  0.00  0.00    +0.000 C 
ATOM     13  C4  ODN C1105      25.680   5.005   3.632  0.00  0.00    +0.000 C 
ATOM     14  C2  ODN C1105      26.380   5.051   5.978  0.00  0.00    +0.000 C 
ATOM     15  C1  ODN C1105      26.907   4.181   7.114  0.00  0.00    +0.000 C 
ATOM     16  C13 ODN C1105      27.376  -1.958   3.807  0.00  0.00    +0.000 C 
ATOM     17  C14 ODN C1105      26.953  -2.768   5.009  0.00  0.00    +0.000 C 
ATOM     18  C12 ODN C1105      28.767  -1.331   3.877  0.00  0.00    +0.000 C 
ATOM     19  C11 ODN C1105      28.583  -0.038   3.138  0.00  0.00    +0.000 C 
ATOM     20  O2  ODN C1105      28.427  -0.319   1.747  0.00  0.00    +0.000 OA
ATOM     21  C15 ODN C1105      29.298  -0.979   5.264  0.00  0.00    +0.000 C 
ATOM     22  C16 ODN C1105      28.771   0.356   5.822  0.00  0.00    +0.000 C 
ATOM     23  C9  ODN C1105      27.469   0.913   5.204  0.00  0.00    +0.000 C 
ATOM     24  C7  ODN C1105      27.309   2.459   5.241  0.00  0.00    +0.000 C 
ATOM     25  C   ODN C1105      27.751   3.008   6.616  0.00  0.00    +0.000 C 
ATOM     26  O   ODN C1105      29.127   3.422   6.585  0.00  0.00    +0.000 OA
ENDROOT
TORSDOF 0
ENDMDL
MODEL 3
REMARK VINA RESULT:      -7.1      1.877      5.650
REMARK  Name = ligand_pdbs\ODN.pdb
REMARK  0 active torsions:
REMARK  status: ('A' for Active; 'I' for Inactive)
REMARK                            x       y       z     vdW  Elec       q    Type
REMARK                         _______ _______ _______ _____ _____    ______ ____
ROOT
ATOM      1  O3  ODN C1105      25.926   3.297   2.673  0.00  0.00    +0.000 OA
ATOM      2  C17 ODN C1105      26.306   3.443   3.813  0.00  0.00    +0.000 C 
ATOM      3  C10 ODN C1105      26.650   2.321   4.714  0.00  0.00    +0.000 C 
ATOM      4  C18 ODN C1105      25.846   1.075   4.426  0.00  0.00    +0.000 C 
ATOM      5  O4  ODN C1105      24.491   1.507   4.265  0.00  0.00    +0.000 OA
ATOM      6  O1  ODN C1105      26.088   0.202   5.543  0.00  0.00    +0.000 OA
ATOM      7  C8  ODN C1105      27.476  -0.038   5.807  0.00  0.00    +0.000 C 
ATOM      8  C19 ODN C1105      26.247   0.351   3.146  0.00  0.00    +0.000 C 
ATOM      9  O5  ODN C1105      25.993   1.141   1.978  0.00  0.00    +0.000 OA
ATOM     10  C6  ODN C1105      27.716  -0.081   3.291  0.00  0.00    +0.000 C 
ATOM     11  C3  ODN C1105      27.844  -1.614   3.127  0.00  0.00    +0.000 C 
ATOM     12  C5  ODN C1105      27.933  -1.975   1.640  0.00  0.00    +0.000 C 
ATOM     13  C4  ODN C1105      26.653  -2.382   3.707  0.00  0.00    +0.000 C 
ATOM     14  C2  ODN C1105      29.086  -2.156   3.853  0.00  0.00    +0.000 C 
ATOM     15  C1  ODN C1105      30.213  -1.141   4.002  0.00  0.00    +0.000 C 
ATOM     16  C13 ODN C1105      26.469   4.740   4.505  0.00  0.00    +0.000 C 
ATOM     17  C14 ODN C1105      27.461   5.573   3.729  0.00  0.00    +0.000 C 
ATOM     18  C12 ODN C1105      26.904   4.314   5.906  0.00  0.00    +0.000 C 
ATOM     19  C11 ODN C1105      26.281   2.956   6.046  0.00  0.00    +0.000 C 
ATOM     20  O2  ODN C1105      24.868   3.108   6.181  0.00  0.00    +0.000 OA
ATOM     21  C15 ODN C1105      28.402   4.143   6.143  0.00  0.00    +0.000 C 
ATOM     22  C16 ODN C1105      28.968   2.794   5.659  0.00  0.00    +0.000 C 
ATOM     23  C9  ODN C1105      28.143   2.021   4.606  0.00  0.00    +0.000 C 
ATOM     24  C7  ODN C1105      28.305   0.475   4.621  0.00  0.00    +0.000 C 
ATOM     25  C   ODN C1105      29.792   0.095   4.797  0.00  0.00    +0.000 C 
ATOM     26  O   ODN C1105      30.104  -0.129   6.182  0.00  0.00    +0.000 OA
ENDROOT
TORSDOF 0
ENDMDL
MODEL 4
REMARK VINA RESULT:      -6.8      1.508      5.551
REMARK  Name = ligand_pdbs\ODN.pdb
REMARK  0 active torsions:
REMARK  status: ('A' for Active; 'I' for Inactive)
REMARK                            x       y       z     vdW  Elec       q    Type
REMARK                         _______ _______ _______ _____ _____    ______ ____
ROOT
ATOM      1  O3  ODN C1105      24.410   3.284   3.319  0.00  0.00    +0.000 OA
ATOM      2  C17 ODN C1105      25.124   3.822   4.135  0.00  0.00    +0.000 C 
ATOM      3  C10 ODN C1105      26.107   3.097   4.970  0.00  0.00    +0.000 C 
ATOM      4  C18 ODN C1105      25.678   1.682   5.279  0.00  0.00    +0.000 C 
ATOM      5  O4  ODN C1105      24.300   1.760   5.656  0.00  0.00    +0.000 OA
ATOM      6  O1  ODN C1105      26.577   1.231   6.307  0.00  0.00    +0.000 OA
ATOM      7  C8  ODN C1105      27.964   1.368   5.974  0.00  0.00    +0.000 C 
ATOM      8  C19 ODN C1105      25.771   0.725   4.096  0.00  0.00    +0.000 C 
ATOM      9  O5  ODN C1105      24.869   1.082   3.042  0.00  0.00    +0.000 OA
ATOM     10  C6  ODN C1105      27.243   0.666   3.654  0.00  0.00    +0.000 C 
ATOM     11  C3  ODN C1105      27.764  -0.789   3.713  0.00  0.00    +0.000 C 
ATOM     12  C5  ODN C1105      27.396  -1.529   2.422  0.00  0.00    +0.000 C 
ATOM     13  C4  ODN C1105      27.175  -1.592   4.876  0.00  0.00    +0.000 C 
ATOM     14  C2  ODN C1105      29.289  -0.834   3.902  0.00  0.00    +0.000 C 
ATOM     15  C1  ODN C1105      30.020   0.393   3.369  0.00  0.00    +0.000 C 
ATOM     16  C13 ODN C1105      25.129   5.267   4.455  0.00  0.00    +0.000 C 
ATOM     17  C14 ODN C1105      25.450   6.032   3.194  0.00  0.00    +0.000 C 
ATOM     18  C12 ODN C1105      26.166   5.353   5.574  0.00  0.00    +0.000 C 
ATOM     19  C11 ODN C1105      26.089   3.992   6.200  0.00  0.00    +0.000 C 
ATOM     20  O2  ODN C1105      24.857   3.880   6.912  0.00  0.00    +0.000 OA
ATOM     21  C15 ODN C1105      27.617   5.570   5.156  0.00  0.00    +0.000 C 
ATOM     22  C16 ODN C1105      28.345   4.287   4.710  0.00  0.00    +0.000 C 
ATOM     23  C9  ODN C1105      27.465   3.095   4.272  0.00  0.00    +0.000 C 
ATOM     24  C7  ODN C1105      28.087   1.685   4.477  0.00  0.00    +0.000 C 
ATOM     25  C   ODN C1105      29.571   1.688   4.045  0.00  0.00    +0.000 C 
ATOM     26  O   ODN C1105      30.431   1.933   5.170  0.00  0.00    +0.000 OA
ENDROOT
TORSDOF 0
ENDMDL
MODEL 5
REMARK VINA RESULT:      -5.5      1.923      3.791
REMARK  Name = ligand_pdbs\ODN.pdb
REMARK  0 active torsions:
REMARK  status: ('A' for Active; 'I' for Inactive)
REMARK                            x       y       z     vdW  Elec       q    Type
REMARK                         _______ _______ _______ _____ _____    ______ ____
ROOT
ATOM      1  O3  ODN C1105      27.928  -0.858   5.898  0.00  0.00    +0.000 OA
ATOM      2  C17 ODN C1105      28.723   0.010   5.616  0.00  0.00    +0.000 C 
ATOM      3  C10 ODN C1105      28.393   1.187   4.783  0.00  0.00    +0.000 C 
ATOM      4  C18 ODN C1105      27.323   0.894   3.758  0.00  0.00    +0.000 C 
ATOM      5  O4  ODN C1105      27.679  -0.358   3.163  0.00  0.00    +0.000 OA
ATOM      6  O1  ODN C1105      27.329   2.026   2.870  0.00  0.00    +0.000 OA
ATOM      7  C8  ODN C1105      27.183   3.289   3.532  0.00  0.00    +0.000 C 
ATOM      8  C19 ODN C1105      25.921   0.738   4.338  0.00  0.00    +0.000 C 
ATOM      9  O5  ODN C1105      25.820  -0.400   5.203  0.00  0.00    +0.000 OA
ATOM     10  C6  ODN C1105      25.545   2.065   5.019  0.00  0.00    +0.000 C 
ATOM     11  C3  ODN C1105      24.247   2.636   4.402  0.00  0.00    +0.000 C 
ATOM     12  C5  ODN C1105      23.025   1.999   5.073  0.00  0.00    +0.000 C 
ATOM     13  C4  ODN C1105      24.127   2.368   2.899  0.00  0.00    +0.000 C 
ATOM     14  C2  ODN C1105      24.171   4.164   4.562  0.00  0.00    +0.000 C 
ATOM     15  C1  ODN C1105      24.946   4.704   5.759  0.00  0.00    +0.000 C 
ATOM     16  C13 ODN C1105      30.146   0.040   6.023  0.00  0.00    +0.000 C 
ATOM     17  C14 ODN C1105      30.209   0.026   7.531  0.00  0.00    +0.000 C 
ATOM     18  C12 ODN C1105      30.657   1.308   5.342  0.00  0.00    +0.000 C 
ATOM     19  C11 ODN C1105      29.754   1.430   4.150  0.00  0.00    +0.000 C 
ATOM     20  O2  ODN C1105      30.086   0.405   3.213  0.00  0.00    +0.000 OA
ATOM     21  C15 ODN C1105      30.537   2.611   6.127  0.00  0.00    +0.000 C 
ATOM     22  C16 ODN C1105      29.140   3.257   6.068  0.00  0.00    +0.000 C 
ATOM     23  C9  ODN C1105      27.957   2.341   5.684  0.00  0.00    +0.000 C 
ATOM     24  C7  ODN C1105      26.757   3.043   4.986  0.00  0.00    +0.000 C 
ATOM     25  C   ODN C1105      26.439   4.382   5.689  0.00  0.00    +0.000 C 
ATOM     26  O   ODN C1105      27.108   5.474   5.038  0.00  0.00    +0.000 OA
ENDROOT
TORSDOF 0
ENDMDL
MODEL 6
REMARK VINA RESULT:      -5.4      1.613      5.130
REMARK  Name = ligand_pdbs\ODN.pdb
REMARK  0 active torsions:
REMARK  status: ('A' for Active; 'I' for Inactive)
REMARK                            x       y       z     vdW  Elec       q    Type
REMARK                         _______ _______ _______ _____ _____    ______ ____
ROOT
ATOM      1  O3  ODN C1105      27.649   3.619   6.959  0.00  0.00    +0.000 OA
ATOM      2  C17 ODN C1105      26.697   3.725   6.219  0.00  0.00    +0.000 C 
ATOM      3  C10 ODN C1105      26.633   3.114   4.872  0.00  0.00    +0.000 C 
ATOM      4  C18 ODN C1105      27.989   3.007   4.216  0.00  0.00    +0.000 C 
ATOM      5  O4  ODN C1105      28.631   4.267   4.428  0.00  0.00    +0.000 OA
ATOM      6  O1  ODN C1105      27.719   2.672   2.843  0.00  0.00    +0.000 OA
ATOM      7  C8  ODN C1105      26.887   1.517   2.675  0.00  0.00    +0.000 C 
ATOM      8  C19 ODN C1105      28.891   1.931   4.810  0.00  0.00    +0.000 C 
ATOM      9  O5  ODN C1105      29.245   2.216   6.170  0.00  0.00    +0.000 OA
ATOM     10  C6  ODN C1105      28.190   0.575   4.627  0.00  0.00    +0.000 C 
ATOM     11  C3  ODN C1105      29.091  -0.391   3.821  0.00  0.00    +0.000 C 
ATOM     12  C5  ODN C1105      30.084  -1.085   4.760  0.00  0.00    +0.000 C 
ATOM     13  C4  ODN C1105      29.911   0.315   2.738  0.00  0.00    +0.000 C 
ATOM     14  C2  ODN C1105      28.259  -1.457   3.090  0.00  0.00    +0.000 C 
ATOM     15  C1  ODN C1105      26.923  -1.770   3.753  0.00  0.00    +0.000 C 
ATOM     16  C13 ODN C1105      25.462   4.486   6.509  0.00  0.00    +0.000 C 
ATOM     17  C14 ODN C1105      24.834   3.916   7.757  0.00  0.00    +0.000 C 
ATOM     18  C12 ODN C1105      24.661   4.318   5.218  0.00  0.00    +0.000 C 
ATOM     19  C11 ODN C1105      25.733   4.131   4.186  0.00  0.00    +0.000 C 
ATOM     20  O2  ODN C1105      26.405   5.375   3.987  0.00  0.00    +0.000 OA
ATOM     21  C15 ODN C1105      23.740   3.104   5.129  0.00  0.00    +0.000 C 
ATOM     22  C16 ODN C1105      24.456   1.796   4.743  0.00  0.00    +0.000 C 
ATOM     23  C9  ODN C1105      25.983   1.735   4.969  0.00  0.00    +0.000 C 
ATOM     24  C7  ODN C1105      26.771   0.788   4.021  0.00  0.00    +0.000 C 
ATOM     25  C   ODN C1105      26.011  -0.547   3.848  0.00  0.00    +0.000 C 
ATOM     26  O   ODN C1105      25.175  -0.513   2.679  0.00  0.00    +0.000 OA
ENDROOT
TORSDOF 0
ENDMDL
MODEL 7
REMARK VINA RESULT:      -5.1      1.915      2.980
REMARK  Name = ligand_pdbs\ODN.pdb
REMARK  0 active torsions:
REMARK  status: ('A' for Active; 'I' for Inactive)
REMARK                            x       y       z     vdW  Elec       q    Type
REMARK                         _______ _______ _______ _____ _____    ______ ____
ROOT
ATOM      1  O3  ODN C1105      30.489   0.102   5.224  0.00  0.00    +0.000 OA
ATOM      2  C17 ODN C1105      29.607  -0.521   4.678  0.00  0.00    +0.000 C 
ATOM      3  C10 ODN C1105      28.183  -0.121   4.700  0.00  0.00    +0.000 C 
ATOM      4  C18 ODN C1105      27.805   0.615   5.964  0.00  0.00    +0.000 C 
ATOM      5  O4  ODN C1105      28.383  -0.128   7.042  0.00  0.00    +0.000 OA
ATOM      6  O1  ODN C1105      26.368   0.673   5.953  0.00  0.00    +0.000 OA
ATOM      7  C8  ODN C1105      25.815   1.233   4.755  0.00  0.00    +0.000 C 
ATOM      8  C19 ODN C1105      28.349   2.037   6.051  0.00  0.00    +0.000 C 
ATOM      9  O5  ODN C1105      29.780   2.063   6.112  0.00  0.00    +0.000 OA
ATOM     10  C6  ODN C1105      27.768   2.834   4.871  0.00  0.00    +0.000 C 
ATOM     11  C3  ODN C1105      26.988   4.067   5.388  0.00  0.00    +0.000 C 
ATOM     12  C5  ODN C1105      27.955   5.230   5.637  0.00  0.00    +0.000 C 
ATOM     13  C4  ODN C1105      26.250   3.802   6.703  0.00  0.00    +0.000 C 
ATOM     14  C2  ODN C1105      25.911   4.512   4.385  0.00  0.00    +0.000 C 
ATOM     15  C1  ODN C1105      26.218   4.148   2.937  0.00  0.00    +0.000 C 
ATOM     16  C13 ODN C1105      29.785  -1.782   3.923  0.00  0.00    +0.000 C 
ATOM     17  C14 ODN C1105      30.746  -1.526   2.788  0.00  0.00    +0.000 C 
ATOM     18  C12 ODN C1105      28.352  -2.131   3.523  0.00  0.00    +0.000 C 
ATOM     19  C11 ODN C1105      27.541  -1.496   4.614  0.00  0.00    +0.000 C 
ATOM     20  O2  ODN C1105      27.727  -2.239   5.819  0.00  0.00    +0.000 OA
ATOM     21  C15 ODN C1105      27.845  -1.561   2.201  0.00  0.00    +0.000 C 
ATOM     22  C16 ODN C1105      27.364  -0.099   2.288  0.00  0.00    +0.000 C 
ATOM     23  C9  ODN C1105      27.877   0.742   3.478  0.00  0.00    +0.000 C 
ATOM     24  C7  ODN C1105      26.941   1.891   3.947  0.00  0.00    +0.000 C 
ATOM     25  C   ODN C1105      26.363   2.641   2.726  0.00  0.00    +0.000 C 
ATOM     26  O   ODN C1105      25.079   2.110   2.359  0.00  0.00    +0.000 OA
ENDROOT
TORSDOF 0
ENDMDL
MODEL 8
REMARK VINA RESULT:      -5.1      1.588      5.186
REMARK  Name = ligand_pdbs\ODN.pdb
REMARK  0 active torsions:
REMARK  status: ('A' for Active; 'I' for Inactive)
REMARK                            x       y       z     vdW  Elec       q    Type
REMARK                         _______ _______ _______ _____ _____    ______ ____
ROOT
ATOM      1  O3  ODN C1105      26.800   4.605   6.521  0.00  0.00    +0.000 OA
ATOM      2  C17 ODN C1105      26.146   4.310   5.546  0.00  0.00    +0.000 C 
ATOM      3  C10 ODN C1105      26.570   3.303   4.548  0.00  0.00    +0.000 C 
ATOM      4  C18 ODN C1105      28.071   3.223   4.402  0.00  0.00    +0.000 C 
ATOM      5  O4  ODN C1105      28.534   4.576   4.333  0.00  0.00    +0.000 OA
ATOM      6  O1  ODN C1105      28.295   2.431   3.223  0.00  0.00    +0.000 OA
ATOM      7  C8  ODN C1105      27.634   1.159   3.237  0.00  0.00    +0.000 C 
ATOM      8  C19 ODN C1105      28.782   2.560   5.576  0.00  0.00    +0.000 C 
ATOM      9  O5  ODN C1105      28.644   3.315   6.786  0.00  0.00    +0.000 OA
ATOM     10  C6  ODN C1105      28.260   1.117   5.687  0.00  0.00    +0.000 C 
ATOM     11  C3  ODN C1105      29.431   0.112   5.578  0.00  0.00    +0.000 C 
ATOM     12  C5  ODN C1105      30.091  -0.071   6.950  0.00  0.00    +0.000 C 
ATOM     13  C4  ODN C1105      30.525   0.567   4.608  0.00  0.00    +0.000 C 
ATOM     14  C2  ODN C1105      28.954  -1.255   5.061  0.00  0.00    +0.000 C 
ATOM     15  C1  ODN C1105      27.493  -1.562   5.368  0.00  0.00    +0.000 C 
ATOM     16  C13 ODN C1105      24.844   4.904   5.170  0.00  0.00    +0.000 C 
ATOM     17  C14 ODN C1105      23.867   4.661   6.296  0.00  0.00    +0.000 C 
ATOM     18  C12 ODN C1105      24.531   4.204   3.849  0.00  0.00    +0.000 C 
ATOM     19  C11 ODN C1105      25.896   3.884   3.314  0.00  0.00    +0.000 C 
ATOM     20  O2  ODN C1105      26.524   5.095   2.895  0.00  0.00    +0.000 OA
ATOM     21  C15 ODN C1105      23.763   2.887   3.928  0.00  0.00    +0.000 C 
ATOM     22  C16 ODN C1105      24.640   1.665   4.259  0.00  0.00    +0.000 C 
ATOM     23  C9  ODN C1105      26.004   1.937   4.930  0.00  0.00    +0.000 C 
ATOM     24  C7  ODN C1105      27.116   0.885   4.656  0.00  0.00    +0.000 C 
ATOM     25  C   ODN C1105      26.534  -0.544   4.751  0.00  0.00    +0.000 C 
ATOM     26  O   ODN C1105      26.137  -1.023   3.455  0.00  0.00    +0.000 OA
ENDROOT
TORSDOF 0
ENDMDL
MODEL 9
REMARK VINA RESULT:      -4.8      1.305      1.616
REMARK  Name = ligand_pdbs\ODN.pdb
REMARK  0 active torsions:
REMARK  status: ('A' for Active; 'I' for Inactive)
REMARK                            x       y       z     vdW  Elec       q    Type
REMARK                         _______ _______ _______ _____ _____    ______ ____
ROOT
ATOM      1  O3  ODN C1105      30.057   0.955   3.939  0.00  0.00    +0.000 OA
ATOM      2  C17 ODN C1105      29.105   0.270   4.239  0.00  0.00    +0.000 C 
ATOM      3  C10 ODN C1105      27.957   0.760   5.033  0.00  0.00    +0.000 C 
ATOM      4  C18 ODN C1105      28.348   1.838   6.017  0.00  0.00    +0.000 C 
ATOM      5  O4  ODN C1105      29.546   1.379   6.651  0.00  0.00    +0.000 OA
ATOM      6  O1  ODN C1105      27.209   1.992   6.882  0.00  0.00    +0.000 OA
ATOM      7  C8  ODN C1105      25.978   2.241   6.190  0.00  0.00    +0.000 C 
ATOM      8  C19 ODN C1105      28.660   3.188   5.379  0.00  0.00    +0.000 C 
ATOM      9  O5  ODN C1105      29.815   3.129   4.534  0.00  0.00    +0.000 OA
ATOM     10  C6  ODN C1105      27.391   3.671   4.657  0.00  0.00    +0.000 C 
ATOM     11  C3  ODN C1105      26.953   5.049   5.207  0.00  0.00    +0.000 C 
ATOM     12  C5  ODN C1105      27.726   6.165   4.496  0.00  0.00    +0.000 C 
ATOM     13  C4  ODN C1105      27.210   5.207   6.708  0.00  0.00    +0.000 C 
ATOM     14  C2  ODN C1105      25.445   5.278   5.013  0.00  0.00    +0.000 C 
ATOM     15  C1  ODN C1105      24.843   4.511   3.841  0.00  0.00    +0.000 C 
ATOM     16  C13 ODN C1105      28.930  -1.158   3.893  0.00  0.00    +0.000 C 
ATOM     17  C14 ODN C1105      28.959  -1.291   2.390  0.00  0.00    +0.000 C 
ATOM     18  C12 ODN C1105      27.605  -1.502   4.571  0.00  0.00    +0.000 C 
ATOM     19  C11 ODN C1105      27.562  -0.538   5.720  0.00  0.00    +0.000 C 
ATOM     20  O2  ODN C1105      28.531  -0.934   6.691  0.00  0.00    +0.000 OA
ATOM     21  C15 ODN C1105      26.334  -1.280   3.756  0.00  0.00    +0.000 C 
ATOM     22  C16 ODN C1105      25.839   0.179   3.742  0.00  0.00    +0.000 C 
ATOM     23  C9  ODN C1105      26.870   1.275   4.092  0.00  0.00    +0.000 C 
ATOM     24  C7  ODN C1105      26.290   2.572   4.724  0.00  0.00    +0.000 C 
ATOM     25  C   ODN C1105      25.003   2.998   3.982  0.00  0.00    +0.000 C 
ATOM     26  O   ODN C1105      23.836   2.478   4.639  0.00  0.00    +0.000 OA
ENDROOT
TORSDOF 0
ENDMDL
