MODEL 1
REMARK VINA RESULT:      -2.2      0.000      0.000
REMARK  Name = ligand_pdbs\P2R.pdb
REMARK  6 active torsions:
REMARK  status: ('A' for Active; 'I' for Inactive)
REMARK    1  A    between atoms: N1_1  and  C24_15
REMARK    2  A    between atoms: C10_8  and  C13_9
REMARK    3  A    between atoms: C15_10  and  C14_26
REMARK    4  A    between atoms: C24_15  and  C25_31
REMARK    5  A    between atoms: N2_19  and  C14_26
REMARK    6  A    between atoms: O2_20  and  C25_31
REMARK                            x       y       z     vdW  Elec       q    Type
REMARK                         _______ _______ _______ _____ _____    ______ ____
ROOT
ATOM      1  C13 P2R A 801      25.339   7.550   4.272  0.00  0.00    +0.000 C 
ATOM      2  O1  P2R A 801      24.872   7.572   3.145  0.00  0.00    +0.000 OA
ATOM      3  N2  P2R A 801      25.155   8.646   5.138  0.00  0.00    +0.000 N 
ATOM      4  H23 P2R A 801      25.568   8.533   6.024  0.00  0.00    +0.000 HD
ENDROOT
BRANCH   1  11
ATOM      5  N1  P2R A 801      28.210   2.751   5.990  0.00  0.00    +0.000 N 
ATOM      6  C4  P2R A 801      26.360   2.323   4.617  0.00  0.00    +0.000 A 
ATOM      7  C5  P2R A 801      27.386   1.763   5.299  0.00  0.00    +0.000 A 
ATOM      8  C6  P2R A 801      27.767   0.250   5.420  0.00  0.00    +0.000 C 
ATOM      9  C7  P2R A 801      26.414   3.779   4.784  0.00  0.00    +0.000 A 
ATOM     10  C8  P2R A 801      27.566   3.982   5.642  0.00  0.00    +0.000 A 
ATOM     11  C10 P2R A 801      26.120   6.321   4.785  0.00  0.00    +0.000 A 
ATOM     12  C1  P2R A 801      27.151  -0.581   4.239  0.00  0.00    +0.000 C 
ATOM     13  C2  P2R A 801      25.690  -0.197   3.892  0.00  0.00    +0.000 C 
ATOM     14  C3  P2R A 801      25.397   1.380   3.830  0.00  0.00    +0.000 C 
ATOM     15  C9  P2R A 801      25.740   4.996   4.400  0.00  0.00    +0.000 A 
ATOM     16  C11 P2R A 801      27.276   6.445   5.656  0.00  0.00    +0.000 A 
ATOM     17  C12 P2R A 801      28.017   5.315   6.099  0.00  0.00    +0.000 A 
BRANCH   5  18
ATOM     18  C24 P2R A 801      29.390   2.587   6.812  0.00  0.00    +0.000 C 
BRANCH  18  19
ATOM     19  C25 P2R A 801      30.687   2.365   5.953  0.00  0.00    +0.000 C 
BRANCH  19  20
ATOM     20  O2  P2R A 801      31.147   1.063   6.041  0.00  0.00    +0.000 OA
ATOM     21  H26 P2R A 801      31.331   0.722   5.149  0.00  0.00    +0.000 HD
ENDBRANCH  19  20
ENDBRANCH  18  19
ENDBRANCH   5  18
ENDBRANCH   1  11
BRANCH   3  22
ATOM     22  C14 P2R A 801      24.433   9.900   4.973  0.00  0.00    +0.000 C 
BRANCH  22  24
ATOM     23  N3  P2R A 801      24.066   9.811  10.112  0.00  0.00    +0.000 NA
ATOM     24  C15 P2R A 801      24.244  10.575   6.363  0.00  0.00    +0.000 C 
ATOM     25  C17 P2R A 801      24.065  10.541   8.897  0.00  0.00    +0.000 C 
ATOM     26  C20 P2R A 801      24.049  12.046   6.419  0.00  0.00    +0.000 C 
ATOM     27  C21 P2R A 801      23.881  10.427  11.349  0.00  0.00    +0.000 C 
ATOM     28  C22 P2R A 801      23.684  11.899  11.384  0.00  0.00    +0.000 C 
ATOM     29  N4  P2R A 801      23.875   9.682  12.507  0.00  0.00    +0.000 N 
ATOM     30  C16 P2R A 801      24.252   9.884   7.588  0.00  0.00    +0.000 C 
ATOM     31  C18 P2R A 801      23.868  12.022   8.898  0.00  0.00    +0.000 C 
ATOM     32  C19 P2R A 801      23.872  12.714   7.626  0.00  0.00    +0.000 C 
ATOM     33  C23 P2R A 801      23.685  12.629  10.211  0.00  0.00    +0.000 C 
ATOM     34  H25 P2R A 801      23.271   9.938  13.264  0.00  0.00    +0.000 HD
ATOM     35  H24 P2R A 801      24.313   8.802  12.519  0.00  0.00    +0.000 HD
ENDBRANCH  22  24
ENDBRANCH   3  22
TORSDOF 6
ENDMDL
MODEL 2
REMARK VINA RESULT:      -1.9      1.619      2.097
REMARK  Name = ligand_pdbs\P2R.pdb
REMARK  6 active torsions:
REMARK  status: ('A' for Active; 'I' for Inactive)
REMARK    1  A    between atoms: N1_1  and  C24_15
REMARK    2  A    between atoms: C10_8  and  C13_9
REMARK    3  A    between atoms: C15_10  and  C14_26
REMARK    4  A    between atoms: C24_15  and  C25_31
REMARK    5  A    between atoms: N2_19  and  C14_26
REMARK    6  A    between atoms: O2_20  and  C25_31
REMARK                            x       y       z     vdW  Elec       q    Type
REMARK                         _______ _______ _______ _____ _____    ______ ____
ROOT
ATOM      1  C13 P2R A 801      24.968   5.815   4.827  0.00  0.00    +0.000 C 
ATOM      2  O1  P2R A 801      23.815   5.477   4.617  0.00  0.00    +0.000 OA
ATOM      3  N2  P2R A 801      25.292   7.178   4.976  0.00  0.00    +0.000 N 
ATOM      4  H23 P2R A 801      26.248   7.349   5.142  0.00  0.00    +0.000 HD
ENDROOT
BRANCH   1  11
ATOM      5  N1  P2R A 801      29.109   1.691   5.111  0.00  0.00    +0.000 N 
ATOM      6  C4  P2R A 801      27.056   0.935   4.271  0.00  0.00    +0.000 A 
ATOM      7  C5  P2R A 801      28.329   0.582   4.570  0.00  0.00    +0.000 A 
ATOM      8  C6  P2R A 801      29.018  -0.812   4.405  0.00  0.00    +0.000 C 
ATOM      9  C7  P2R A 801      26.869   2.356   4.582  0.00  0.00    +0.000 A 
ATOM     10  C8  P2R A 801      28.160   2.765   5.100  0.00  0.00    +0.000 A 
ATOM     11  C10 P2R A 801      26.093   4.765   4.956  0.00  0.00    +0.000 A 
ATOM     12  C1  P2R A 801      28.255  -1.698   3.357  0.00  0.00    +0.000 C 
ATOM     13  C2  P2R A 801      26.712  -1.630   3.479  0.00  0.00    +0.000 C 
ATOM     14  C3  P2R A 801      26.109  -0.157   3.683  0.00  0.00    +0.000 C 
ATOM     15  C9  P2R A 801      25.886   3.410   4.544  0.00  0.00    +0.000 A 
ATOM     16  C11 P2R A 801      27.409   5.098   5.477  0.00  0.00    +0.000 A 
ATOM     17  C12 P2R A 801      28.455   4.140   5.562  0.00  0.00    +0.000 A 
BRANCH   5  18
ATOM     18  C24 P2R A 801      30.488   1.752   5.545  0.00  0.00    +0.000 C 
BRANCH  18  19
ATOM     19  C25 P2R A 801      30.755   0.854   6.808  0.00  0.00    +0.000 C 
BRANCH  19  20
ATOM     20  O2  P2R A 801      31.625  -0.184   6.528  0.00  0.00    +0.000 OA
ATOM     21  H26 P2R A 801      31.173  -0.849   5.981  0.00  0.00    +0.000 HD
ENDBRANCH  19  20
ENDBRANCH  18  19
ENDBRANCH   5  18
ENDBRANCH   1  11
BRANCH   3  22
ATOM     22  C14 P2R A 801      24.466   8.376   4.965  0.00  0.00    +0.000 C 
BRANCH  22  24
ATOM     23  N3  P2R A 801      22.788  11.623   8.598  0.00  0.00    +0.000 NA
ATOM     24  C15 P2R A 801      24.572   9.091   6.344  0.00  0.00    +0.000 C 
ATOM     25  C17 P2R A 801      23.750  10.688   8.141  0.00  0.00    +0.000 C 
ATOM     26  C20 P2R A 801      25.735   8.787   7.216  0.00  0.00    +0.000 C 
ATOM     27  C21 P2R A 801      22.904  12.267   9.828  0.00  0.00    +0.000 C 
ATOM     28  C22 P2R A 801      24.075  11.952  10.685  0.00  0.00    +0.000 C 
ATOM     29  N4  P2R A 801      21.953  13.180  10.232  0.00  0.00    +0.000 N 
ATOM     30  C16 P2R A 801      23.630  10.015   6.833  0.00  0.00    +0.000 C 
ATOM     31  C18 P2R A 801      24.941  10.350   8.978  0.00  0.00    +0.000 C 
ATOM     32  C19 P2R A 801      25.894   9.391   8.458  0.00  0.00    +0.000 C 
ATOM     33  C23 P2R A 801      25.022  11.040  10.261  0.00  0.00    +0.000 C 
ATOM     34  H25 P2R A 801      22.226  13.983  10.765  0.00  0.00    +0.000 HD
ATOM     35  H24 P2R A 801      21.053  13.147   9.839  0.00  0.00    +0.000 HD
ENDBRANCH  22  24
ENDBRANCH   3  22
TORSDOF 6
ENDMDL
MODEL 3
REMARK VINA RESULT:      -0.9      1.924      3.295
REMARK  Name = ligand_pdbs\P2R.pdb
REMARK  6 active torsions:
REMARK  status: ('A' for Active; 'I' for Inactive)
REMARK    1  A    between atoms: N1_1  and  C24_15
REMARK    2  A    between atoms: C10_8  and  C13_9
REMARK    3  A    between atoms: C15_10  and  C14_26
REMARK    4  A    between atoms: C24_15  and  C25_31
REMARK    5  A    between atoms: N2_19  and  C14_26
REMARK    6  A    between atoms: O2_20  and  C25_31
REMARK                            x       y       z     vdW  Elec       q    Type
REMARK                         _______ _______ _______ _____ _____    ______ ____
ROOT
ATOM      1  C13 P2R A 801      24.617   6.199   4.708  0.00  0.00    +0.000 C 
ATOM      2  O1  P2R A 801      23.416   6.416   4.686  0.00  0.00    +0.000 OA
ATOM      3  N2  P2R A 801      25.532   7.270   4.669  0.00  0.00    +0.000 N 
ATOM      4  H23 P2R A 801      26.477   6.993   4.690  0.00  0.00    +0.000 HD
ENDROOT
BRANCH   1  11
ATOM      5  N1  P2R A 801      26.883   0.831   5.229  0.00  0.00    +0.000 N 
ATOM      6  C4  P2R A 801      28.415   2.562   5.614  0.00  0.00    +0.000 A 
ATOM      7  C5  P2R A 801      28.245   1.219   5.580  0.00  0.00    +0.000 A 
ATOM      8  C6  P2R A 801      29.297   0.096   5.865  0.00  0.00    +0.000 C 
ATOM      9  C7  P2R A 801      27.140   3.211   5.291  0.00  0.00    +0.000 A 
ATOM     10  C8  P2R A 801      26.239   2.099   5.059  0.00  0.00    +0.000 A 
ATOM     11  C10 P2R A 801      25.162   4.758   4.799  0.00  0.00    +0.000 A 
ATOM     12  C1  P2R A 801      30.493   0.648   6.719  0.00  0.00    +0.000 C 
ATOM     13  C2  P2R A 801      30.988   2.049   6.281  0.00  0.00    +0.000 C 
ATOM     14  C3  P2R A 801      29.828   3.116   5.977  0.00  0.00    +0.000 C 
ATOM     15  C9  P2R A 801      26.530   4.510   5.140  0.00  0.00    +0.000 A 
ATOM     16  C11 P2R A 801      24.323   3.594   4.567  0.00  0.00    +0.000 A 
ATOM     17  C12 P2R A 801      24.817   2.268   4.688  0.00  0.00    +0.000 A 
BRANCH   5  18
ATOM     18  C24 P2R A 801      26.279  -0.478   5.091  0.00  0.00    +0.000 C 
BRANCH  18  19
ATOM     19  C25 P2R A 801      26.833  -1.260   3.846  0.00  0.00    +0.000 C 
BRANCH  19  20
ATOM     20  O2  P2R A 801      27.125  -0.413   2.792  0.00  0.00    +0.000 OA
ATOM     21  H26 P2R A 801      26.311  -0.214   2.298  0.00  0.00    +0.000 HD
ENDBRANCH  19  20
ENDBRANCH  18  19
ENDBRANCH   5  18
ENDBRANCH   1  11
BRANCH   3  22
ATOM     22  C14 P2R A 801      25.334   8.712   4.639  0.00  0.00    +0.000 C 
BRANCH  22  24
ATOM     23  N3  P2R A 801      23.018  11.714   8.129  0.00  0.00    +0.000 NA
ATOM     24  C15 P2R A 801      25.105   9.233   6.088  0.00  0.00    +0.000 C 
ATOM     25  C17 P2R A 801      23.966  10.708   7.815  0.00  0.00    +0.000 C 
ATOM     26  C20 P2R A 801      25.918   8.657   7.189  0.00  0.00    +0.000 C 
ATOM     27  C21 P2R A 801      22.834  12.182   9.429  0.00  0.00    +0.000 C 
ATOM     28  C22 P2R A 801      23.658  11.595  10.516  0.00  0.00    +0.000 C 
ATOM     29  N4  P2R A 801      21.911  13.170   9.692  0.00  0.00    +0.000 N 
ATOM     30  C16 P2R A 801      24.166  10.221   6.436  0.00  0.00    +0.000 C 
ATOM     31  C18 P2R A 801      24.812  10.098   8.886  0.00  0.00    +0.000 C 
ATOM     32  C19 P2R A 801      25.766   9.077   8.506  0.00  0.00    +0.000 C 
ATOM     33  C23 P2R A 801      24.584  10.610  10.232  0.00  0.00    +0.000 C 
ATOM     34  H25 P2R A 801      22.099  13.854  10.399  0.00  0.00    +0.000 HD
ATOM     35  H24 P2R A 801      21.169  13.320   9.065  0.00  0.00    +0.000 HD
ENDBRANCH  22  24
ENDBRANCH   3  22
TORSDOF 6
ENDMDL
