MODEL 1
REMARK VINA RESULT:      -3.6      0.000      0.000
REMARK  Name = ligand_pdbs\PGE.pdb
REMARK  7 active torsions:
REMARK  status: ('A' for Active; 'I' for Inactive)
REMARK    1  A    between atoms: C1_1  and  C2_3
REMARK    2  A    between atoms: C2_3  and  O2_4
REMARK    3  A    between atoms: O2_4  and  C3_5
REMARK    4  A    between atoms: C3_5  and  C4_6
REMARK    5  A    between atoms: C4_6  and  O3_10
REMARK    6  A    between atoms: C6_8  and  C5_9
REMARK    7  A    between atoms: C5_9  and  O3_10
REMARK                            x       y       z     vdW  Elec       q    Type
REMARK                         _______ _______ _______ _____ _____    ______ ____
ROOT
ATOM      1  C3  PGE C1005      27.594   5.264   4.089  0.00  0.00    +0.000 C 
ENDROOT
BRANCH   1   2
ATOM      2  O2  PGE C1005      27.997   4.021   4.732  0.00  0.00    +0.000 OA
BRANCH   2   3
ATOM      3  C2  PGE C1005      27.780   2.905   3.841  0.00  0.00    +0.000 C 
BRANCH   3   4
ATOM      4  C1  PGE C1005      26.373   2.854   3.223  0.00  0.00    +0.000 C 
ATOM      5  O1  PGE C1005      26.211   1.562   2.605  0.00  0.00    +0.000 OA
ENDBRANCH   3   4
ENDBRANCH   2   3
ENDBRANCH   1   2
BRANCH   1   6
ATOM      6  C4  PGE C1005      27.248   6.444   5.026  0.00  0.00    +0.000 C 
BRANCH   6   7
ATOM      7  O3  PGE C1005      25.837   6.626   5.317  0.00  0.00    +0.000 OA
BRANCH   7   8
ATOM      8  C5  PGE C1005      24.839   6.272   4.301  0.00  0.00    +0.000 C 
BRANCH   8  10
ATOM      9  O4  PGE C1005      24.383   4.318   5.790  0.00  0.00    +0.000 OA
ATOM     10  C6  PGE C1005      23.890   5.132   4.701  0.00  0.00    +0.000 C 
ENDBRANCH   8  10
ENDBRANCH   7   8
ENDBRANCH   6   7
ENDBRANCH   1   6
TORSDOF 7
ENDMDL
MODEL 2
REMARK VINA RESULT:      -3.5      1.827      4.430
REMARK  Name = ligand_pdbs\PGE.pdb
REMARK  7 active torsions:
REMARK  status: ('A' for Active; 'I' for Inactive)
REMARK    1  A    between atoms: C1_1  and  C2_3
REMARK    2  A    between atoms: C2_3  and  O2_4
REMARK    3  A    between atoms: O2_4  and  C3_5
REMARK    4  A    between atoms: C3_5  and  C4_6
REMARK    5  A    between atoms: C4_6  and  O3_10
REMARK    6  A    between atoms: C6_8  and  C5_9
REMARK    7  A    between atoms: C5_9  and  O3_10
REMARK                            x       y       z     vdW  Elec       q    Type
REMARK                         _______ _______ _______ _____ _____    ______ ____
ROOT
ATOM      1  C3  PGE C1005      23.741   4.738   4.799  0.00  0.00    +0.000 C 
ENDROOT
BRANCH   1   2
ATOM      2  O2  PGE C1005      24.186   6.067   4.403  0.00  0.00    +0.000 OA
BRANCH   2   3
ATOM      3  C2  PGE C1005      25.628   6.107   4.329  0.00  0.00    +0.000 C 
BRANCH   3   4
ATOM      4  C1  PGE C1005      26.267   7.286   5.084  0.00  0.00    +0.000 C 
ATOM      5  O1  PGE C1005      27.658   6.970   5.295  0.00  0.00    +0.000 OA
ENDBRANCH   3   4
ENDBRANCH   2   3
ENDBRANCH   1   2
BRANCH   1   6
ATOM      6  C4  PGE C1005      24.681   3.949   5.740  0.00  0.00    +0.000 C 
BRANCH   6   7
ATOM      7  O3  PGE C1005      25.036   2.611   5.300  0.00  0.00    +0.000 OA
BRANCH   7   8
ATOM      8  C5  PGE C1005      26.447   2.209   5.283  0.00  0.00    +0.000 C 
BRANCH   8  10
ATOM      9  O4  PGE C1005      28.402   3.762   5.214  0.00  0.00    +0.000 OA
ATOM     10  C6  PGE C1005      27.394   3.146   6.048  0.00  0.00    +0.000 C 
ENDBRANCH   8  10
ENDBRANCH   7   8
ENDBRANCH   6   7
ENDBRANCH   1   6
TORSDOF 7
ENDMDL
MODEL 3
REMARK VINA RESULT:      -3.5      1.352      1.715
REMARK  Name = ligand_pdbs\PGE.pdb
REMARK  7 active torsions:
REMARK  status: ('A' for Active; 'I' for Inactive)
REMARK    1  A    between atoms: C1_1  and  C2_3
REMARK    2  A    between atoms: C2_3  and  O2_4
REMARK    3  A    between atoms: O2_4  and  C3_5
REMARK    4  A    between atoms: C3_5  and  C4_6
REMARK    5  A    between atoms: C4_6  and  O3_10
REMARK    6  A    between atoms: C6_8  and  C5_9
REMARK    7  A    between atoms: C5_9  and  O3_10
REMARK                            x       y       z     vdW  Elec       q    Type
REMARK                         _______ _______ _______ _____ _____    ______ ____
ROOT
ATOM      1  C3  PGE C1005      27.443   5.023   3.469  0.00  0.00    +0.000 C 
ENDROOT
BRANCH   1   2
ATOM      2  O2  PGE C1005      27.365   3.574   3.595  0.00  0.00    +0.000 OA
BRANCH   2   3
ATOM      3  C2  PGE C1005      27.767   3.167   4.921  0.00  0.00    +0.000 C 
BRANCH   3   4
ATOM      4  C1  PGE C1005      27.373   1.726   5.287  0.00  0.00    +0.000 C 
ATOM      5  O1  PGE C1005      28.190   1.318   6.403  0.00  0.00    +0.000 OA
ENDBRANCH   3   4
ENDBRANCH   2   3
ENDBRANCH   1   2
BRANCH   1   6
ATOM      6  C4  PGE C1005      27.434   5.830   4.788  0.00  0.00    +0.000 C 
BRANCH   6   7
ATOM      7  O3  PGE C1005      26.124   6.215   5.283  0.00  0.00    +0.000 OA
BRANCH   7   8
ATOM      8  C5  PGE C1005      24.953   6.076   4.411  0.00  0.00    +0.000 C 
BRANCH   8  10
ATOM      9  O4  PGE C1005      24.449   4.147   5.915  0.00  0.00    +0.000 OA
ATOM     10  C6  PGE C1005      23.986   4.950   4.805  0.00  0.00    +0.000 C 
ENDBRANCH   8  10
ENDBRANCH   7   8
ENDBRANCH   6   7
ENDBRANCH   1   6
TORSDOF 7
ENDMDL
MODEL 4
REMARK VINA RESULT:      -3.4      1.716      2.557
REMARK  Name = ligand_pdbs\PGE.pdb
REMARK  7 active torsions:
REMARK  status: ('A' for Active; 'I' for Inactive)
REMARK    1  A    between atoms: C1_1  and  C2_3
REMARK    2  A    between atoms: C2_3  and  O2_4
REMARK    3  A    between atoms: O2_4  and  C3_5
REMARK    4  A    between atoms: C3_5  and  C4_6
REMARK    5  A    between atoms: C4_6  and  O3_10
REMARK    6  A    between atoms: C6_8  and  C5_9
REMARK    7  A    between atoms: C5_9  and  O3_10
REMARK                            x       y       z     vdW  Elec       q    Type
REMARK                         _______ _______ _______ _____ _____    ______ ____
ROOT
ATOM      1  C3  PGE C1005      27.514   3.519   3.821  0.00  0.00    +0.000 C 
ENDROOT
BRANCH   1   2
ATOM      2  O2  PGE C1005      27.071   2.952   5.087  0.00  0.00    +0.000 OA
BRANCH   2   3
ATOM      3  C2  PGE C1005      28.072   2.049   5.607  0.00  0.00    +0.000 C 
BRANCH   3   4
ATOM      4  C1  PGE C1005      29.315   2.747   6.184  0.00  0.00    +0.000 C 
ATOM      5  O1  PGE C1005      30.469   2.232   5.490  0.00  0.00    +0.000 OA
ENDBRANCH   3   4
ENDBRANCH   2   3
ENDBRANCH   1   2
BRANCH   1   6
ATOM      6  C4  PGE C1005      27.592   5.061   3.746  0.00  0.00    +0.000 C 
BRANCH   6   7
ATOM      7  O3  PGE C1005      27.334   5.767   4.988  0.00  0.00    +0.000 OA
BRANCH   7   8
ATOM      8  C5  PGE C1005      26.182   6.672   5.078  0.00  0.00    +0.000 C 
BRANCH   8  10
ATOM      9  O4  PGE C1005      24.368   4.969   5.306  0.00  0.00    +0.000 OA
ATOM     10  C6  PGE C1005      24.865   6.092   4.541  0.00  0.00    +0.000 C 
ENDBRANCH   8  10
ENDBRANCH   7   8
ENDBRANCH   6   7
ENDBRANCH   1   6
TORSDOF 7
ENDMDL
MODEL 5
REMARK VINA RESULT:      -3.4      1.871      2.620
REMARK  Name = ligand_pdbs\PGE.pdb
REMARK  7 active torsions:
REMARK  status: ('A' for Active; 'I' for Inactive)
REMARK    1  A    between atoms: C1_1  and  C2_3
REMARK    2  A    between atoms: C2_3  and  O2_4
REMARK    3  A    between atoms: O2_4  and  C3_5
REMARK    4  A    between atoms: C3_5  and  C4_6
REMARK    5  A    between atoms: C4_6  and  O3_10
REMARK    6  A    between atoms: C6_8  and  C5_9
REMARK    7  A    between atoms: C5_9  and  O3_10
REMARK                            x       y       z     vdW  Elec       q    Type
REMARK                         _______ _______ _______ _____ _____    ______ ____
ROOT
ATOM      1  C3  PGE C1005      26.477   3.448   6.405  0.00  0.00    +0.000 C 
ENDROOT
BRANCH   1   2
ATOM      2  O2  PGE C1005      27.564   4.040   5.637  0.00  0.00    +0.000 OA
BRANCH   2   3
ATOM      3  C2  PGE C1005      28.587   3.053   5.380  0.00  0.00    +0.000 C 
BRANCH   3   4
ATOM      4  C1  PGE C1005      28.348   2.210   4.115  0.00  0.00    +0.000 C 
ATOM      5  O1  PGE C1005      29.504   1.369   3.924  0.00  0.00    +0.000 OA
ENDBRANCH   3   4
ENDBRANCH   2   3
ENDBRANCH   1   2
BRANCH   1   6
ATOM      6  C4  PGE C1005      25.110   3.336   5.691  0.00  0.00    +0.000 C 
BRANCH   6   7
ATOM      7  O3  PGE C1005      24.288   4.533   5.710  0.00  0.00    +0.000 OA
BRANCH   7   8
ATOM      8  C5  PGE C1005      24.187   5.359   4.501  0.00  0.00    +0.000 C 
BRANCH   8  10
ATOM      9  O4  PGE C1005      26.131   6.896   4.817  0.00  0.00    +0.000 OA
ATOM     10  C6  PGE C1005      24.696   6.799   4.661  0.00  0.00    +0.000 C 
ENDBRANCH   8  10
ENDBRANCH   7   8
ENDBRANCH   6   7
ENDBRANCH   1   6
TORSDOF 7
ENDMDL
MODEL 6
REMARK VINA RESULT:      -3.4      1.755      3.415
REMARK  Name = ligand_pdbs\PGE.pdb
REMARK  7 active torsions:
REMARK  status: ('A' for Active; 'I' for Inactive)
REMARK    1  A    between atoms: C1_1  and  C2_3
REMARK    2  A    between atoms: C2_3  and  O2_4
REMARK    3  A    between atoms: O2_4  and  C3_5
REMARK    4  A    between atoms: C3_5  and  C4_6
REMARK    5  A    between atoms: C4_6  and  O3_10
REMARK    6  A    between atoms: C6_8  and  C5_9
REMARK    7  A    between atoms: C5_9  and  O3_10
REMARK                            x       y       z     vdW  Elec       q    Type
REMARK                         _______ _______ _______ _____ _____    ______ ____
ROOT
ATOM      1  C3  PGE C1005      27.033   2.218   5.541  0.00  0.00    +0.000 C 
ENDROOT
BRANCH   1   2
ATOM      2  O2  PGE C1005      28.059   3.066   4.950  0.00  0.00    +0.000 OA
BRANCH   2   3
ATOM      3  C2  PGE C1005      27.986   4.397   5.505  0.00  0.00    +0.000 C 
BRANCH   3   4
ATOM      4  C1  PGE C1005      27.690   5.498   4.473  0.00  0.00    +0.000 C 
ATOM      5  O1  PGE C1005      27.618   6.754   5.178  0.00  0.00    +0.000 OA
ENDBRANCH   3   4
ENDBRANCH   2   3
ENDBRANCH   1   2
BRANCH   1   6
ATOM      6  C4  PGE C1005      25.760   1.987   4.695  0.00  0.00    +0.000 C 
BRANCH   6   7
ATOM      7  O3  PGE C1005      24.532   2.540   5.237  0.00  0.00    +0.000 OA
BRANCH   7   8
ATOM      8  C5  PGE C1005      24.484   3.957   5.614  0.00  0.00    +0.000 C 
BRANCH   8  10
ATOM      9  O4  PGE C1005      24.242   6.176   4.492  0.00  0.00    +0.000 OA
ATOM     10  C6  PGE C1005      23.684   4.852   4.655  0.00  0.00    +0.000 C 
ENDBRANCH   8  10
ENDBRANCH   7   8
ENDBRANCH   6   7
ENDBRANCH   1   6
TORSDOF 7
ENDMDL
MODEL 7
REMARK VINA RESULT:      -3.4      1.924      4.632
REMARK  Name = ligand_pdbs\PGE.pdb
REMARK  7 active torsions:
REMARK  status: ('A' for Active; 'I' for Inactive)
REMARK    1  A    between atoms: C1_1  and  C2_3
REMARK    2  A    between atoms: C2_3  and  O2_4
REMARK    3  A    between atoms: O2_4  and  C3_5
REMARK    4  A    between atoms: C3_5  and  C4_6
REMARK    5  A    between atoms: C4_6  and  O3_10
REMARK    6  A    between atoms: C6_8  and  C5_9
REMARK    7  A    between atoms: C5_9  and  O3_10
REMARK                            x       y       z     vdW  Elec       q    Type
REMARK                         _______ _______ _______ _____ _____    ______ ____
ROOT
ATOM      1  C3  PGE C1005      27.351   4.443   3.526  0.00  0.00    +0.000 C 
ENDROOT
BRANCH   1   2
ATOM      2  O2  PGE C1005      28.053   5.438   4.323  0.00  0.00    +0.000 OA
BRANCH   2   3
ATOM      3  C2  PGE C1005      27.109   6.343   4.937  0.00  0.00    +0.000 C 
BRANCH   3   4
ATOM      4  C1  PGE C1005      25.702   5.751   5.133  0.00  0.00    +0.000 C 
ATOM      5  O1  PGE C1005      24.747   6.808   4.911  0.00  0.00    +0.000 OA
ENDBRANCH   3   4
ENDBRANCH   2   3
ENDBRANCH   1   2
BRANCH   1   6
ATOM      6  C4  PGE C1005      27.743   2.967   3.764  0.00  0.00    +0.000 C 
BRANCH   6   7
ATOM      7  O3  PGE C1005      27.175   2.346   4.948  0.00  0.00    +0.000 OA
BRANCH   7   8
ATOM      8  C5  PGE C1005      28.065   1.881   6.017  0.00  0.00    +0.000 C 
BRANCH   8  10
ATOM      9  O4  PGE C1005      30.560   1.749   6.033  0.00  0.00    +0.000 OA
ATOM     10  C6  PGE C1005      29.408   2.621   6.104  0.00  0.00    +0.000 C 
ENDBRANCH   8  10
ENDBRANCH   7   8
ENDBRANCH   6   7
ENDBRANCH   1   6
TORSDOF 7
ENDMDL
MODEL 8
REMARK VINA RESULT:      -3.3      1.862      2.659
REMARK  Name = ligand_pdbs\PGE.pdb
REMARK  7 active torsions:
REMARK  status: ('A' for Active; 'I' for Inactive)
REMARK    1  A    between atoms: C1_1  and  C2_3
REMARK    2  A    between atoms: C2_3  and  O2_4
REMARK    3  A    between atoms: O2_4  and  C3_5
REMARK    4  A    between atoms: C3_5  and  C4_6
REMARK    5  A    between atoms: C4_6  and  O3_10
REMARK    6  A    between atoms: C6_8  and  C5_9
REMARK    7  A    between atoms: C5_9  and  O3_10
REMARK                            x       y       z     vdW  Elec       q    Type
REMARK                         _______ _______ _______ _____ _____    ______ ____
ROOT
ATOM      1  C3  PGE C1005      25.712   3.612   4.408  0.00  0.00    +0.000 C 
ENDROOT
BRANCH   1   2
ATOM      2  O2  PGE C1005      26.703   3.484   3.350  0.00  0.00    +0.000 OA
BRANCH   2   3
ATOM      3  C2  PGE C1005      27.312   2.174   3.392  0.00  0.00    +0.000 C 
BRANCH   3   4
ATOM      4  C1  PGE C1005      28.489   2.056   4.375  0.00  0.00    +0.000 C 
ATOM      5  O1  PGE C1005      29.490   1.218   3.761  0.00  0.00    +0.000 OA
ENDBRANCH   3   4
ENDBRANCH   2   3
ENDBRANCH   1   2
BRANCH   1   6
ATOM      6  C4  PGE C1005      26.029   4.628   5.530  0.00  0.00    +0.000 C 
BRANCH   6   7
ATOM      7  O3  PGE C1005      27.244   5.404   5.353  0.00  0.00    +0.000 OA
BRANCH   7   8
ATOM      8  C5  PGE C1005      27.151   6.857   5.172  0.00  0.00    +0.000 C 
BRANCH   8  10
ATOM      9  O4  PGE C1005      25.266   8.395   5.739  0.00  0.00    +0.000 OA
ATOM     10  C6  PGE C1005      25.746   7.375   4.832  0.00  0.00    +0.000 C 
ENDBRANCH   8  10
ENDBRANCH   7   8
ENDBRANCH   6   7
ENDBRANCH   1   6
TORSDOF 7
ENDMDL
MODEL 9
REMARK VINA RESULT:      -3.3      1.665      1.980
REMARK  Name = ligand_pdbs\PGE.pdb
REMARK  7 active torsions:
REMARK  status: ('A' for Active; 'I' for Inactive)
REMARK    1  A    between atoms: C1_1  and  C2_3
REMARK    2  A    between atoms: C2_3  and  O2_4
REMARK    3  A    between atoms: O2_4  and  C3_5
REMARK    4  A    between atoms: C3_5  and  C4_6
REMARK    5  A    between atoms: C4_6  and  O3_10
REMARK    6  A    between atoms: C6_8  and  C5_9
REMARK    7  A    between atoms: C5_9  and  O3_10
REMARK                            x       y       z     vdW  Elec       q    Type
REMARK                         _______ _______ _______ _____ _____    ______ ____
ROOT
ATOM      1  C3  PGE C1005      27.174   3.654   3.675  0.00  0.00    +0.000 C 
ENDROOT
BRANCH   1   2
ATOM      2  O2  PGE C1005      27.750   2.319   3.590  0.00  0.00    +0.000 OA
BRANCH   2   3
ATOM      3  C2  PGE C1005      26.814   1.411   2.970  0.00  0.00    +0.000 C 
BRANCH   3   4
ATOM      4  C1  PGE C1005      25.746   0.853   3.927  0.00  0.00    +0.000 C 
ATOM      5  O1  PGE C1005      24.454   1.236   3.414  0.00  0.00    +0.000 OA
ENDBRANCH   3   4
ENDBRANCH   2   3
ENDBRANCH   1   2
BRANCH   1   6
ATOM      6  C4  PGE C1005      27.430   4.431   4.987  0.00  0.00    +0.000 C 
BRANCH   6   7
ATOM      7  O3  PGE C1005      26.244   4.876   5.698  0.00  0.00    +0.000 OA
BRANCH   7   8
ATOM      8  C5  PGE C1005      24.998   4.112   5.573  0.00  0.00    +0.000 C 
BRANCH   8  10
ATOM      9  O4  PGE C1005      24.242   6.148   4.340  0.00  0.00    +0.000 OA
ATOM     10  C6  PGE C1005      23.867   4.841   4.833  0.00  0.00    +0.000 C 
ENDBRANCH   8  10
ENDBRANCH   7   8
ENDBRANCH   6   7
ENDBRANCH   1   6
TORSDOF 7
ENDMDL
