MODEL 1
REMARK VINA RESULT:      -6.3      0.000      0.000
REMARK  Name = ligand_pdbs\PJ0.pdb
REMARK  0 active torsions:
REMARK  status: ('A' for Active; 'I' for Inactive)
REMARK                            x       y       z     vdW  Elec       q    Type
REMARK                         _______ _______ _______ _____ _____    ______ ____
ROOT
ATOM      1  C1  PJ0 A 701      26.058   1.125   3.298  0.00  0.00    +0.000 C 
ATOM      2  C2  PJ0 A 701      26.367   2.518   3.759  0.00  0.00    +0.000 C 
ATOM      3  C3  PJ0 A 701      25.366   3.420   3.877  0.00  0.00    +0.000 C 
ATOM      4  C4  PJ0 A 701      25.695   4.714   4.310  0.00  0.00    +0.000 C 
ATOM      5  C6  PJ0 A 701      25.045   6.849   4.844  0.00  0.00    +0.000 C 
ATOM      6  C7  PJ0 A 701      26.346   7.215   5.148  0.00  0.00    +0.000 C 
ATOM      7  C8  PJ0 A 701      27.355   6.310   5.033  0.00  0.00    +0.000 C 
ATOM      8  N10 PJ0 A 701      27.980   4.091   4.471  0.00  0.00    +0.000 NA
ATOM      9  C11 PJ0 A 701      27.681   2.882   4.066  0.00  0.00    +0.000 C 
ATOM     10  N5  PJ0 A 701      24.757   5.641   4.444  0.00  0.00    +0.000 NA
ATOM     11  C9  PJ0 A 701      27.038   5.017   4.601  0.00  0.00    +0.000 C 
ATOM     12  N12 PJ0 A 701      28.690   1.944   3.942  0.00  0.00    +0.000 NA
ENDROOT
TORSDOF 0
ENDMDL
MODEL 2
REMARK VINA RESULT:      -6.1      0.986      4.631
REMARK  Name = ligand_pdbs\PJ0.pdb
REMARK  0 active torsions:
REMARK  status: ('A' for Active; 'I' for Inactive)
REMARK                            x       y       z     vdW  Elec       q    Type
REMARK                         _______ _______ _______ _____ _____    ______ ____
ROOT
ATOM      1  C1  PJ0 A 701      27.361   6.765   5.111  0.00  0.00    +0.000 C 
ATOM      2  C2  PJ0 A 701      26.878   5.427   4.639  0.00  0.00    +0.000 C 
ATOM      3  C3  PJ0 A 701      27.777   4.457   4.350  0.00  0.00    +0.000 C 
ATOM      4  C4  PJ0 A 701      27.287   3.218   3.909  0.00  0.00    +0.000 C 
ATOM      5  C6  PJ0 A 701      27.682   1.072   3.198  0.00  0.00    +0.000 C 
ATOM      6  C7  PJ0 A 701      26.326   0.824   3.056  0.00  0.00    +0.000 C 
ATOM      7  C8  PJ0 A 701      25.420   1.795   3.348  0.00  0.00    +0.000 C 
ATOM      8  N10 PJ0 A 701      25.061   4.021   4.088  0.00  0.00    +0.000 NA
ATOM      9  C11 PJ0 A 701      25.510   5.181   4.499  0.00  0.00    +0.000 C 
ATOM     10  N5  PJ0 A 701      28.120   2.230   3.610  0.00  0.00    +0.000 NA
ATOM     11  C9  PJ0 A 701      25.898   3.036   3.787  0.00  0.00    +0.000 C 
ATOM     12  N12 PJ0 A 701      24.607   6.184   4.802  0.00  0.00    +0.000 NA
ENDROOT
TORSDOF 0
ENDMDL
MODEL 3
REMARK VINA RESULT:      -6.1      1.835      2.391
REMARK  Name = ligand_pdbs\PJ0.pdb
REMARK  0 active torsions:
REMARK  status: ('A' for Active; 'I' for Inactive)
REMARK                            x       y       z     vdW  Elec       q    Type
REMARK                         _______ _______ _______ _____ _____    ______ ____
ROOT
ATOM      1  C1  PJ0 A 701      28.379   1.002   3.518  0.00  0.00    +0.000 C 
ATOM      2  C2  PJ0 A 701      27.282   1.963   3.865  0.00  0.00    +0.000 C 
ATOM      3  C3  PJ0 A 701      27.434   3.279   3.585  0.00  0.00    +0.000 C 
ATOM      4  C4  PJ0 A 701      26.387   4.148   3.927  0.00  0.00    +0.000 C 
ATOM      5  C6  PJ0 A 701      25.514   6.269   3.990  0.00  0.00    +0.000 C 
ATOM      6  C7  PJ0 A 701      24.351   5.820   4.595  0.00  0.00    +0.000 C 
ATOM      7  C8  PJ0 A 701      24.195   4.498   4.876  0.00  0.00    +0.000 C 
ATOM      8  N10 PJ0 A 701      25.137   2.322   4.789  0.00  0.00    +0.000 NA
ATOM      9  C11 PJ0 A 701      26.111   1.505   4.474  0.00  0.00    +0.000 C 
ATOM     10  N5  PJ0 A 701      26.478   5.447   3.678  0.00  0.00    +0.000 NA
ATOM     11  C9  PJ0 A 701      25.234   3.623   4.540  0.00  0.00    +0.000 C 
ATOM     12  N12 PJ0 A 701      25.974   0.156   4.750  0.00  0.00    +0.000 NA
ENDROOT
TORSDOF 0
ENDMDL
MODEL 4
REMARK VINA RESULT:      -6.0      1.224      1.440
REMARK  Name = ligand_pdbs\PJ0.pdb
REMARK  0 active torsions:
REMARK  status: ('A' for Active; 'I' for Inactive)
REMARK                            x       y       z     vdW  Elec       q    Type
REMARK                         _______ _______ _______ _____ _____    ______ ____
ROOT
ATOM      1  C1  PJ0 A 701      26.181  -0.085   4.449  0.00  0.00    +0.000 C 
ATOM      2  C2  PJ0 A 701      26.193   1.405   4.284  0.00  0.00    +0.000 C 
ATOM      3  C3  PJ0 A 701      25.090   2.122   4.605  0.00  0.00    +0.000 C 
ATOM      4  C4  PJ0 A 701      25.140   3.514   4.435  0.00  0.00    +0.000 C 
ATOM      5  C6  PJ0 A 701      24.118   5.563   4.579  0.00  0.00    +0.000 C 
ATOM      6  C7  PJ0 A 701      25.248   6.208   4.101  0.00  0.00    +0.000 C 
ATOM      7  C8  PJ0 A 701      26.359   5.492   3.780  0.00  0.00    +0.000 C 
ATOM      8  N10 PJ0 A 701      27.374   3.350   3.650  0.00  0.00    +0.000 NA
ATOM      9  C11 PJ0 A 701      27.335   2.050   3.804  0.00  0.00    +0.000 C 
ATOM     10  N5  PJ0 A 701      24.090   4.268   4.731  0.00  0.00    +0.000 NA
ATOM     11  C9  PJ0 A 701      26.320   4.102   3.945  0.00  0.00    +0.000 C 
ATOM     12  N12 PJ0 A 701      28.453   1.301   3.484  0.00  0.00    +0.000 NA
ENDROOT
TORSDOF 0
ENDMDL
MODEL 5
REMARK VINA RESULT:      -6.0      1.903      2.859
REMARK  Name = ligand_pdbs\PJ0.pdb
REMARK  0 active torsions:
REMARK  status: ('A' for Active; 'I' for Inactive)
REMARK                            x       y       z     vdW  Elec       q    Type
REMARK                         _______ _______ _______ _____ _____    ______ ____
ROOT
ATOM      1  C1  PJ0 A 701      29.467   2.449   6.110  0.00  0.00    +0.000 C 
ATOM      2  C2  PJ0 A 701      28.051   2.752   5.723  0.00  0.00    +0.000 C 
ATOM      3  C3  PJ0 A 701      27.638   4.040   5.658  0.00  0.00    +0.000 C 
ATOM      4  C4  PJ0 A 701      26.305   4.284   5.294  0.00  0.00    +0.000 C 
ATOM      5  C6  PJ0 A 701      24.606   5.769   4.878  0.00  0.00    +0.000 C 
ATOM      6  C7  PJ0 A 701      23.721   4.743   4.588  0.00  0.00    +0.000 C 
ATOM      7  C8  PJ0 A 701      24.133   3.448   4.650  0.00  0.00    +0.000 C 
ATOM      8  N10 PJ0 A 701      25.921   1.950   5.089  0.00  0.00    +0.000 NA
ATOM      9  C11 PJ0 A 701      27.163   1.714   5.430  0.00  0.00    +0.000 C 
ATOM     10  N5  PJ0 A 701      25.842   5.524   5.214  0.00  0.00    +0.000 NA
ATOM     11  C9  PJ0 A 701      25.461   3.193   5.014  0.00  0.00    +0.000 C 
ATOM     12  N12 PJ0 A 701      27.605   0.405   5.499  0.00  0.00    +0.000 NA
ENDROOT
TORSDOF 0
ENDMDL
MODEL 6
REMARK VINA RESULT:      -5.9      1.439      4.044
REMARK  Name = ligand_pdbs\PJ0.pdb
REMARK  0 active torsions:
REMARK  status: ('A' for Active; 'I' for Inactive)
REMARK                            x       y       z     vdW  Elec       q    Type
REMARK                         _______ _______ _______ _____ _____    ______ ____
ROOT
ATOM      1  C1  PJ0 A 701      24.813   6.746   4.752  0.00  0.00    +0.000 C 
ATOM      2  C2  PJ0 A 701      25.706   5.567   4.508  0.00  0.00    +0.000 C 
ATOM      3  C3  PJ0 A 701      25.169   4.400   4.081  0.00  0.00    +0.000 C 
ATOM      4  C4  PJ0 A 701      26.037   3.318   3.867  0.00  0.00    +0.000 C 
ATOM      5  C6  PJ0 A 701      26.362   1.133   3.245  0.00  0.00    +0.000 C 
ATOM      6  C7  PJ0 A 701      27.728   1.231   3.455  0.00  0.00    +0.000 C 
ATOM      7  C8  PJ0 A 701      28.271   2.403   3.882  0.00  0.00    +0.000 C 
ATOM      8  N10 PJ0 A 701      27.887   4.657   4.516  0.00  0.00    +0.000 NA
ATOM      9  C11 PJ0 A 701      27.083   5.671   4.720  0.00  0.00    +0.000 C 
ATOM     10  N5  PJ0 A 701      25.570   2.149   3.449  0.00  0.00    +0.000 NA
ATOM     11  C9  PJ0 A 701      27.414   3.488   4.100  0.00  0.00    +0.000 C 
ATOM     12  N12 PJ0 A 701      27.613   6.873   5.154  0.00  0.00    +0.000 NA
ENDROOT
TORSDOF 0
ENDMDL
MODEL 7
REMARK VINA RESULT:      -5.9      1.967      3.086
REMARK  Name = ligand_pdbs\PJ0.pdb
REMARK  0 active torsions:
REMARK  status: ('A' for Active; 'I' for Inactive)
REMARK                            x       y       z     vdW  Elec       q    Type
REMARK                         _______ _______ _______ _____ _____    ______ ____
ROOT
ATOM      1  C1  PJ0 A 701      29.906   0.449   6.454  0.00  0.00    +0.000 C 
ATOM      2  C2  PJ0 A 701      29.157   1.431   5.605  0.00  0.00    +0.000 C 
ATOM      3  C3  PJ0 A 701      28.795   2.626   6.127  0.00  0.00    +0.000 C 
ATOM      4  C4  PJ0 A 701      28.093   3.518   5.302  0.00  0.00    +0.000 C 
ATOM      5  C6  PJ0 A 701      27.058   5.544   5.005  0.00  0.00    +0.000 C 
ATOM      6  C7  PJ0 A 701      26.734   5.236   3.693  0.00  0.00    +0.000 C 
ATOM      7  C8  PJ0 A 701      27.098   4.036   3.164  0.00  0.00    +0.000 C 
ATOM      8  N10 PJ0 A 701      28.180   1.954   3.518  0.00  0.00    +0.000 NA
ATOM      9  C11 PJ0 A 701      28.834   1.115   4.282  0.00  0.00    +0.000 C 
ATOM     10  N5  PJ0 A 701      27.712   4.703   5.758  0.00  0.00    +0.000 NA
ATOM     11  C9  PJ0 A 701      27.798   3.139   3.980  0.00  0.00    +0.000 C 
ATOM     12  N12 PJ0 A 701      29.215  -0.110   3.766  0.00  0.00    +0.000 NA
ENDROOT
TORSDOF 0
ENDMDL
MODEL 8
REMARK VINA RESULT:      -5.9      2.655      5.900
REMARK  Name = ligand_pdbs\PJ0.pdb
REMARK  0 active torsions:
REMARK  status: ('A' for Active; 'I' for Inactive)
REMARK                            x       y       z     vdW  Elec       q    Type
REMARK                         _______ _______ _______ _____ _____    ______ ____
ROOT
ATOM      1  C1  PJ0 A 701      26.395   3.840   3.446  0.00  0.00    +0.000 C 
ATOM      2  C2  PJ0 A 701      26.601   2.363   3.591  0.00  0.00    +0.000 C 
ATOM      3  C3  PJ0 A 701      27.850   1.850   3.490  0.00  0.00    +0.000 C 
ATOM      4  C4  PJ0 A 701      28.002   0.462   3.630  0.00  0.00    +0.000 C 
ATOM      5  C6  PJ0 A 701      29.361  -1.387   3.666  0.00  0.00    +0.000 C 
ATOM      6  C7  PJ0 A 701      28.284  -2.227   3.902  0.00  0.00    +0.000 C 
ATOM      7  C8  PJ0 A 701      27.028  -1.715   4.007  0.00  0.00    +0.000 C 
ATOM      8  N10 PJ0 A 701      25.664   0.226   3.962  0.00  0.00    +0.000 NA
ATOM      9  C11 PJ0 A 701      25.513   1.521   3.831  0.00  0.00    +0.000 C 
ATOM     10  N5  PJ0 A 701      29.201  -0.099   3.540  0.00  0.00    +0.000 NA
ATOM     11  C9  PJ0 A 701      26.865  -0.331   3.868  0.00  0.00    +0.000 C 
ATOM     12  N12 PJ0 A 701      24.245   2.065   3.934  0.00  0.00    +0.000 NA
ENDROOT
TORSDOF 0
ENDMDL
MODEL 9
REMARK VINA RESULT:      -5.8      1.890      4.103
REMARK  Name = ligand_pdbs\PJ0.pdb
REMARK  0 active torsions:
REMARK  status: ('A' for Active; 'I' for Inactive)
REMARK                            x       y       z     vdW  Elec       q    Type
REMARK                         _______ _______ _______ _____ _____    ______ ____
ROOT
ATOM      1  C1  PJ0 A 701      23.399   4.516   4.480  0.00  0.00    +0.000 C 
ATOM      2  C2  PJ0 A 701      24.788   4.118   4.877  0.00  0.00    +0.000 C 
ATOM      3  C3  PJ0 A 701      25.123   2.807   4.913  0.00  0.00    +0.000 C 
ATOM      4  C4  PJ0 A 701      26.432   2.473   5.292  0.00  0.00    +0.000 C 
ATOM      5  C6  PJ0 A 701      28.030   0.877   5.697  0.00  0.00    +0.000 C 
ATOM      6  C7  PJ0 A 701      28.971   1.841   6.026  0.00  0.00    +0.000 C 
ATOM      7  C8  PJ0 A 701      28.639   3.159   5.988  0.00  0.00    +0.000 C 
ATOM      8  N10 PJ0 A 701      26.954   4.774   5.556  0.00  0.00    +0.000 NA
ATOM      9  C11 PJ0 A 701      25.733   5.093   5.206  0.00  0.00    +0.000 C 
ATOM     10  N5  PJ0 A 701      26.817   1.205   5.347  0.00  0.00    +0.000 NA
ATOM     11  C9  PJ0 A 701      27.335   3.503   5.613  0.00  0.00    +0.000 C 
ATOM     12  N12 PJ0 A 701      25.373   6.428   5.159  0.00  0.00    +0.000 NA
ENDROOT
TORSDOF 0
ENDMDL
