MODEL 1
REMARK VINA RESULT:      -8.1      0.000      0.000
REMARK  Name = ligand_pdbs\PK0.pdb
REMARK  4 active torsions:
REMARK  status: ('A' for Active; 'I' for Inactive)
REMARK    1  A    between atoms: C3_8  and  C1B_9
REMARK    2  A    between atoms: N1_16  and  C1A_17
REMARK    3  A    between atoms: C4A_20  and  C41_23
REMARK    4  A    between atoms: C5A_21  and  C51_25
REMARK                            x       y       z     vdW  Elec       q    Type
REMARK                         _______ _______ _______ _____ _____    ______ ____
ROOT
ATOM      1  N4  PK0 A 950      24.043   3.351   4.644  0.00  0.00    +0.000 N 
ATOM      2  C31 PK0 A 950      24.413   3.744   6.959  0.00  0.00    +0.000 C 
ATOM      3  C4  PK0 A 950      22.650   3.675   4.288  0.00  0.00    +0.000 C 
ATOM      4  O2  PK0 A 950      27.098   3.456   6.380  0.00  0.00    +0.000 OA
ATOM      5  C2  PK0 A 950      26.170   3.257   5.686  0.00  0.00    +0.000 C 
ATOM      6  O5  PK0 A 950      24.404   1.451   3.306  0.00  0.00    +0.000 OA
ATOM      7  C5  PK0 A 950      24.753   2.207   4.176  0.00  0.00    +0.000 C 
ATOM      8  C3  PK0 A 950      24.932   4.035   5.548  0.00  0.00    +0.000 C 
ATOM      9  N1  PK0 A 950      25.917   2.121   4.983  0.00  0.00    +0.000 N 
ENDROOT
BRANCH   8  10
ATOM     10  C1B PK0 A 950      25.342   5.422   5.153  0.00  0.00    +0.000 A 
ATOM     11  C2B PK0 A 950      26.592   5.945   5.479  0.00  0.00    +0.000 A 
ATOM     12  C3B PK0 A 950      26.884   7.252   5.086  0.00  0.00    +0.000 A 
ATOM     13  C4B PK0 A 950      26.032   8.048   4.340  0.00  0.00    +0.000 A 
ATOM     14  C5B PK0 A 950      24.777   7.503   4.032  0.00  0.00    +0.000 A 
ATOM     15  C6B PK0 A 950      24.457   6.214   4.429  0.00  0.00    +0.000 A 
ATOM     16  O4  PK0 A 950      26.367   9.367   3.992  0.00  0.00    +0.000 OA
ENDBRANCH   8  10
BRANCH   9  17
ATOM     17  C1A PK0 A 950      26.876   1.160   4.616  0.00  0.00    +0.000 A 
ATOM     18  C2A PK0 A 950      28.127   1.596   4.151  0.00  0.00    +0.000 A 
ATOM     19  C3A PK0 A 950      29.120   0.720   3.755  0.00  0.00    +0.000 A 
ATOM     20  C4A PK0 A 950      28.877  -0.653   3.843  0.00  0.00    +0.000 A 
ATOM     21  C5A PK0 A 950      27.661  -1.110   4.296  0.00  0.00    +0.000 A 
ATOM     22  C6A PK0 A 950      26.661  -0.220   4.685  0.00  0.00    +0.000 A 
BRANCH  21  23
ATOM     23  C51 PK0 A 950      27.434  -2.568   4.336  0.00  0.00    +0.000 C 
ATOM     24  F1  PK0 A 950      26.931  -3.052   5.357  0.00  0.00    +0.000 F 
ATOM     25  F2  PK0 A 950      28.409  -3.325   4.218  0.00  0.00    +0.000 F 
ATOM     26  F3  PK0 A 950      26.657  -3.075   3.513  0.00  0.00    +0.000 F 
ENDBRANCH  21  23
BRANCH  20  27
ATOM     27  C41 PK0 A 950      30.015  -1.565   3.498  0.00  0.00    +0.000 C 
ATOM     28  N41 PK0 A 950      31.023  -2.276   3.463  0.00  0.00    +0.000 NA
ENDBRANCH  20  27
ENDBRANCH   9  17
TORSDOF 4
ENDMDL
MODEL 2
REMARK VINA RESULT:      -6.3      1.818      2.166
REMARK  Name = ligand_pdbs\PK0.pdb
REMARK  4 active torsions:
REMARK  status: ('A' for Active; 'I' for Inactive)
REMARK    1  A    between atoms: C3_8  and  C1B_9
REMARK    2  A    between atoms: N1_16  and  C1A_17
REMARK    3  A    between atoms: C4A_20  and  C41_23
REMARK    4  A    between atoms: C5A_21  and  C51_25
REMARK                            x       y       z     vdW  Elec       q    Type
REMARK                         _______ _______ _______ _____ _____    ______ ____
ROOT
ATOM      1  N4  PK0 A 950      24.185   3.261   4.651  0.00  0.00    +0.000 N 
ATOM      2  C31 PK0 A 950      24.329   3.766   6.970  0.00  0.00    +0.000 C 
ATOM      3  C4  PK0 A 950      22.813   3.491   4.164  0.00  0.00    +0.000 C 
ATOM      4  O2  PK0 A 950      27.065   3.610   6.637  0.00  0.00    +0.000 OA
ATOM      5  C2  PK0 A 950      26.215   3.331   5.875  0.00  0.00    +0.000 C 
ATOM      6  O5  PK0 A 950      24.765   1.334   3.435  0.00  0.00    +0.000 OA
ATOM      7  C5  PK0 A 950      24.994   2.143   4.297  0.00  0.00    +0.000 C 
ATOM      8  C3  PK0 A 950      24.953   4.030   5.597  0.00  0.00    +0.000 C 
ATOM      9  N1  PK0 A 950      26.086   2.155   5.203  0.00  0.00    +0.000 N 
ENDROOT
BRANCH   8  10
ATOM     10  C1B PK0 A 950      25.321   5.422   5.178  0.00  0.00    +0.000 A 
ATOM     11  C2B PK0 A 950      26.557   5.987   5.489  0.00  0.00    +0.000 A 
ATOM     12  C3B PK0 A 950      26.809   7.295   5.074  0.00  0.00    +0.000 A 
ATOM     13  C4B PK0 A 950      25.930   8.053   4.318  0.00  0.00    +0.000 A 
ATOM     14  C5B PK0 A 950      24.691   7.466   4.025  0.00  0.00    +0.000 A 
ATOM     15  C6B PK0 A 950      24.411   6.176   4.444  0.00  0.00    +0.000 A 
ATOM     16  O4  PK0 A 950      26.226   9.376   3.947  0.00  0.00    +0.000 OA
ENDBRANCH   8  10
BRANCH   9  17
ATOM     17  C1A PK0 A 950      27.123   1.237   4.963  0.00  0.00    +0.000 A 
ATOM     18  C2A PK0 A 950      26.998   0.343   3.886  0.00  0.00    +0.000 A 
ATOM     19  C3A PK0 A 950      27.963  -0.601   3.588  0.00  0.00    +0.000 A 
ATOM     20  C4A PK0 A 950      29.117  -0.652   4.376  0.00  0.00    +0.000 A 
ATOM     21  C5A PK0 A 950      29.268   0.212   5.435  0.00  0.00    +0.000 A 
ATOM     22  C6A PK0 A 950      28.286   1.156   5.734  0.00  0.00    +0.000 A 
BRANCH  21  23
ATOM     23  C51 PK0 A 950      30.484   0.098   6.262  0.00  0.00    +0.000 C 
ATOM     24  F1  PK0 A 950      31.160   1.116   6.449  0.00  0.00    +0.000 F 
ATOM     25  F2  PK0 A 950      31.385  -0.671   5.892  0.00  0.00    +0.000 F 
ATOM     26  F3  PK0 A 950      30.372  -0.246   7.448  0.00  0.00    +0.000 F 
ENDBRANCH  21  23
BRANCH  20  27
ATOM     27  C41 PK0 A 950      30.179  -1.623   3.956  0.00  0.00    +0.000 C 
ATOM     28  N41 PK0 A 950      30.855  -2.593   3.603  0.00  0.00    +0.000 NA
ENDBRANCH  20  27
ENDBRANCH   9  17
TORSDOF 4
ENDMDL
MODEL 3
REMARK VINA RESULT:      -6.3      1.637      2.132
REMARK  Name = ligand_pdbs\PK0.pdb
REMARK  4 active torsions:
REMARK  status: ('A' for Active; 'I' for Inactive)
REMARK    1  A    between atoms: C3_8  and  C1B_9
REMARK    2  A    between atoms: N1_16  and  C1A_17
REMARK    3  A    between atoms: C4A_20  and  C41_23
REMARK    4  A    between atoms: C5A_21  and  C51_25
REMARK                            x       y       z     vdW  Elec       q    Type
REMARK                         _______ _______ _______ _____ _____    ______ ____
ROOT
ATOM      1  N4  PK0 A 950      23.907   3.081   4.626  0.00  0.00    +0.000 N 
ATOM      2  C31 PK0 A 950      24.202   3.405   6.963  0.00  0.00    +0.000 C 
ATOM      3  C4  PK0 A 950      22.556   3.505   4.219  0.00  0.00    +0.000 C 
ATOM      4  O2  PK0 A 950      26.884   2.948   6.493  0.00  0.00    +0.000 OA
ATOM      5  C2  PK0 A 950      25.976   2.825   5.756  0.00  0.00    +0.000 C 
ATOM      6  O5  PK0 A 950      24.200   1.187   3.265  0.00  0.00    +0.000 OA
ATOM      7  C5  PK0 A 950      24.560   1.902   4.165  0.00  0.00    +0.000 C 
ATOM      8  C3  PK0 A 950      24.800   3.687   5.582  0.00  0.00    +0.000 C 
ATOM      9  N1  PK0 A 950      25.679   1.722   5.018  0.00  0.00    +0.000 N 
ENDROOT
BRANCH   8  10
ATOM     10  C1B PK0 A 950      25.318   5.051   5.235  0.00  0.00    +0.000 A 
ATOM     11  C2B PK0 A 950      26.672   5.371   5.317  0.00  0.00    +0.000 A 
ATOM     12  C3B PK0 A 950      27.064   6.670   4.992  0.00  0.00    +0.000 A 
ATOM     13  C4B PK0 A 950      26.201   7.651   4.534  0.00  0.00    +0.000 A 
ATOM     14  C5B PK0 A 950      24.843   7.307   4.468  0.00  0.00    +0.000 A 
ATOM     15  C6B PK0 A 950      24.427   6.029   4.806  0.00  0.00    +0.000 A 
ATOM     16  O4  PK0 A 950      26.646   8.951   4.243  0.00  0.00    +0.000 OA
ENDBRANCH   8  10
BRANCH   9  17
ATOM     17  C1A PK0 A 950      26.587   0.705   4.671  0.00  0.00    +0.000 A 
ATOM     18  C2A PK0 A 950      26.336  -0.605   5.113  0.00  0.00    +0.000 A 
ATOM     19  C3A PK0 A 950      27.184  -1.659   4.831  0.00  0.00    +0.000 A 
ATOM     20  C4A PK0 A 950      28.322  -1.416   4.056  0.00  0.00    +0.000 A 
ATOM     21  C5A PK0 A 950      28.592  -0.144   3.608  0.00  0.00    +0.000 A 
ATOM     22  C6A PK0 A 950      27.736   0.916   3.904  0.00  0.00    +0.000 A 
BRANCH  21  23
ATOM     23  C51 PK0 A 950      29.824   0.074   2.825  0.00  0.00    +0.000 C 
ATOM     24  F1  PK0 A 950      30.434   1.138   2.983  0.00  0.00    +0.000 F 
ATOM     25  F2  PK0 A 950      29.750   0.070   1.587  0.00  0.00    +0.000 F 
ATOM     26  F3  PK0 A 950      30.783  -0.693   2.993  0.00  0.00    +0.000 F 
ENDBRANCH  21  23
BRANCH  20  27
ATOM     27  C41 PK0 A 950      29.158  -2.605   3.691  0.00  0.00    +0.000 C 
ATOM     28  N41 PK0 A 950      30.040  -3.448   3.503  0.00  0.00    +0.000 NA
ENDBRANCH  20  27
ENDBRANCH   9  17
TORSDOF 4
ENDMDL
