MODEL 1
REMARK VINA RESULT:      -2.6      0.000      0.000
REMARK  Name = ligand_pdbs\PO4.pdb
REMARK  0 active torsions:
REMARK  status: ('A' for Active; 'I' for Inactive)
REMARK                            x       y       z     vdW  Elec       q    Type
REMARK                         _______ _______ _______ _____ _____    ______ ____
ROOT
ATOM      1  P   PO4 A1919      24.395   4.614   4.887  0.00  0.00    +0.000 P 
ATOM      2  O1  PO4 A1919      24.600   6.107   5.000  0.00  0.00    +0.000 OA
ATOM      3  O2  PO4 A1919      24.583   3.964   6.231  0.00  0.00    +0.000 OA
ATOM      4  O3  PO4 A1919      22.992   4.351   4.387  0.00  0.00    +0.000 OA
ATOM      5  O4  PO4 A1919      25.396   4.045   3.908  0.00  0.00    +0.000 OA
ENDROOT
TORSDOF 0
ENDMDL
MODEL 2
REMARK VINA RESULT:      -2.6      0.009      2.206
REMARK  Name = ligand_pdbs\PO4.pdb
REMARK  0 active torsions:
REMARK  status: ('A' for Active; 'I' for Inactive)
REMARK                            x       y       z     vdW  Elec       q    Type
REMARK                         _______ _______ _______ _____ _____    ______ ____
ROOT
ATOM      1  P   PO4 A1919      24.394   4.615   4.879  0.00  0.00    +0.000 P 
ATOM      2  O1  PO4 A1919      25.402   4.048   3.906  0.00  0.00    +0.000 OA
ATOM      3  O2  PO4 A1919      22.997   4.344   4.389  0.00  0.00    +0.000 OA
ATOM      4  O3  PO4 A1919      24.596   3.961   6.227  0.00  0.00    +0.000 OA
ATOM      5  O4  PO4 A1919      24.604   6.106   5.003  0.00  0.00    +0.000 OA
ENDROOT
TORSDOF 0
ENDMDL
MODEL 3
REMARK VINA RESULT:      -2.6      0.019      2.201
REMARK  Name = ligand_pdbs\PO4.pdb
REMARK  0 active torsions:
REMARK  status: ('A' for Active; 'I' for Inactive)
REMARK                            x       y       z     vdW  Elec       q    Type
REMARK                         _______ _______ _______ _____ _____    ______ ____
ROOT
ATOM      1  P   PO4 A1919      24.402   4.631   4.876  0.00  0.00    +0.000 P 
ATOM      2  O1  PO4 A1919      22.996   4.368   4.385  0.00  0.00    +0.000 OA
ATOM      3  O2  PO4 A1919      25.401   4.064   3.904  0.00  0.00    +0.000 OA
ATOM      4  O3  PO4 A1919      24.603   6.124   5.001  0.00  0.00    +0.000 OA
ATOM      5  O4  PO4 A1919      24.589   3.980   6.227  0.00  0.00    +0.000 OA
ENDROOT
TORSDOF 0
ENDMDL
MODEL 4
REMARK VINA RESULT:      -2.6      0.042      2.211
REMARK  Name = ligand_pdbs\PO4.pdb
REMARK  0 active torsions:
REMARK  status: ('A' for Active; 'I' for Inactive)
REMARK                            x       y       z     vdW  Elec       q    Type
REMARK                         _______ _______ _______ _____ _____    ______ ____
ROOT
ATOM      1  P   PO4 A1919      24.376   4.658   4.877  0.00  0.00    +0.000 P 
ATOM      2  O1  PO4 A1919      24.557   4.003   6.227  0.00  0.00    +0.000 OA
ATOM      3  O2  PO4 A1919      24.593   6.143   4.991  0.00  0.00    +0.000 OA
ATOM      4  O3  PO4 A1919      25.379   4.070   3.911  0.00  0.00    +0.000 OA
ATOM      5  O4  PO4 A1919      22.975   4.391   4.377  0.00  0.00    +0.000 OA
ENDROOT
TORSDOF 0
ENDMDL
MODEL 5
REMARK VINA RESULT:      -2.6      2.133      3.035
REMARK  Name = ligand_pdbs\PO4.pdb
REMARK  0 active torsions:
REMARK  status: ('A' for Active; 'I' for Inactive)
REMARK                            x       y       z     vdW  Elec       q    Type
REMARK                         _______ _______ _______ _____ _____    ______ ____
ROOT
ATOM      1  P   PO4 A1919      25.557   6.960   4.764  0.00  0.00    +0.000 P 
ATOM      2  O1  PO4 A1919      25.225   7.239   3.316  0.00  0.00    +0.000 OA
ATOM      3  O2  PO4 A1919      25.196   8.147   5.615  0.00  0.00    +0.000 OA
ATOM      4  O3  PO4 A1919      24.773   5.750   5.220  0.00  0.00    +0.000 OA
ATOM      5  O4  PO4 A1919      27.037   6.680   4.891  0.00  0.00    +0.000 OA
ENDROOT
TORSDOF 0
ENDMDL
MODEL 6
REMARK VINA RESULT:      -2.6      2.114      3.405
REMARK  Name = ligand_pdbs\PO4.pdb
REMARK  0 active torsions:
REMARK  status: ('A' for Active; 'I' for Inactive)
REMARK                            x       y       z     vdW  Elec       q    Type
REMARK                         _______ _______ _______ _____ _____    ______ ____
ROOT
ATOM      1  P   PO4 A1919      25.517   6.951   4.744  0.00  0.00    +0.000 P 
ATOM      2  O1  PO4 A1919      25.190   8.149   5.607  0.00  0.00    +0.000 OA
ATOM      3  O2  PO4 A1919      25.192   7.248   3.305  0.00  0.00    +0.000 OA
ATOM      4  O3  PO4 A1919      26.992   6.642   4.878  0.00  0.00    +0.000 OA
ATOM      5  O4  PO4 A1919      24.706   5.764   5.210  0.00  0.00    +0.000 OA
ENDROOT
TORSDOF 0
ENDMDL
MODEL 7
REMARK VINA RESULT:      -2.6      2.525      3.457
REMARK  Name = ligand_pdbs\PO4.pdb
REMARK  0 active torsions:
REMARK  status: ('A' for Active; 'I' for Inactive)
REMARK                            x       y       z     vdW  Elec       q    Type
REMARK                         _______ _______ _______ _____ _____    ______ ____
ROOT
ATOM      1  P   PO4 A1919      26.882   5.840   4.631  0.00  0.00    +0.000 P 
ATOM      2  O1  PO4 A1919      27.630   6.965   5.310  0.00  0.00    +0.000 OA
ATOM      3  O2  PO4 A1919      25.711   6.389   3.863  0.00  0.00    +0.000 OA
ATOM      4  O3  PO4 A1919      27.824   5.130   3.684  0.00  0.00    +0.000 OA
ATOM      5  O4  PO4 A1919      26.387   4.867   5.677  0.00  0.00    +0.000 OA
ENDROOT
TORSDOF 0
ENDMDL
MODEL 8
REMARK VINA RESULT:      -2.6      2.526      3.522
REMARK  Name = ligand_pdbs\PO4.pdb
REMARK  0 active torsions:
REMARK  status: ('A' for Active; 'I' for Inactive)
REMARK                            x       y       z     vdW  Elec       q    Type
REMARK                         _______ _______ _______ _____ _____    ______ ____
ROOT
ATOM      1  P   PO4 A1919      26.891   5.828   4.628  0.00  0.00    +0.000 P 
ATOM      2  O1  PO4 A1919      26.441   4.839   5.679  0.00  0.00    +0.000 OA
ATOM      3  O2  PO4 A1919      25.700   6.372   3.888  0.00  0.00    +0.000 OA
ATOM      4  O3  PO4 A1919      27.629   6.960   5.308  0.00  0.00    +0.000 OA
ATOM      5  O4  PO4 A1919      27.816   5.134   3.654  0.00  0.00    +0.000 OA
ENDROOT
TORSDOF 0
ENDMDL
MODEL 9
REMARK VINA RESULT:      -2.6      2.527      3.530
REMARK  Name = ligand_pdbs\PO4.pdb
REMARK  0 active torsions:
REMARK  status: ('A' for Active; 'I' for Inactive)
REMARK                            x       y       z     vdW  Elec       q    Type
REMARK                         _______ _______ _______ _____ _____    ______ ____
ROOT
ATOM      1  P   PO4 A1919      26.896   5.838   4.641  0.00  0.00    +0.000 P 
ATOM      2  O1  PO4 A1919      26.409   4.851   5.678  0.00  0.00    +0.000 OA
ATOM      3  O2  PO4 A1919      27.632   6.967   5.309  0.00  0.00    +0.000 OA
ATOM      4  O3  PO4 A1919      27.823   5.122   3.684  0.00  0.00    +0.000 OA
ATOM      5  O4  PO4 A1919      25.711   6.388   3.881  0.00  0.00    +0.000 OA
ENDROOT
TORSDOF 0
ENDMDL
