MODEL 1
REMARK VINA RESULT:      -2.8      0.000      0.000
REMARK  Name = ligand_pdbs\PO4_A_1919 .pdb
REMARK  0 active torsions:
REMARK  status: ('A' for Active; 'I' for Inactive)
REMARK                            x       y       z     vdW  Elec       q    Type
REMARK                         _______ _______ _______ _____ _____    ______ ____
ROOT
ATOM      1  P   PO4 A1919      23.402  12.379  10.765  0.00  0.00    +0.000 P 
ATOM      2  O1  PO4 A1919      24.773  12.584  10.163  0.00  0.00    +0.000 OA
ATOM      3  O2  PO4 A1919      23.032  10.921  10.722  0.00  0.00    +0.000 OA
ATOM      4  O3  PO4 A1919      23.423  12.855  12.201  0.00  0.00    +0.000 OA
ATOM      5  O4  PO4 A1919      22.388  13.180   9.981  0.00  0.00    +0.000 OA
ENDROOT
TORSDOF 0
ENDMDL
MODEL 2
REMARK VINA RESULT:      -2.8      0.132      2.204
REMARK  Name = ligand_pdbs\PO4_A_1919 .pdb
REMARK  0 active torsions:
REMARK  status: ('A' for Active; 'I' for Inactive)
REMARK                            x       y       z     vdW  Elec       q    Type
REMARK                         _______ _______ _______ _____ _____    ______ ____
ROOT
ATOM      1  P   PO4 A1919      23.481  12.339  10.701  0.00  0.00    +0.000 P 
ATOM      2  O1  PO4 A1919      23.483  12.808  12.138  0.00  0.00    +0.000 OA
ATOM      3  O2  PO4 A1919      22.538  13.180   9.885  0.00  0.00    +0.000 OA
ATOM      4  O3  PO4 A1919      24.883  12.462  10.146  0.00  0.00    +0.000 OA
ATOM      5  O4  PO4 A1919      23.042  10.893  10.649  0.00  0.00    +0.000 OA
ENDROOT
TORSDOF 0
ENDMDL
MODEL 3
REMARK VINA RESULT:      -2.6      9.018     10.006
REMARK  Name = ligand_pdbs\PO4_A_1919 .pdb
REMARK  0 active torsions:
REMARK  status: ('A' for Active; 'I' for Inactive)
REMARK                            x       y       z     vdW  Elec       q    Type
REMARK                         _______ _______ _______ _____ _____    ______ ____
ROOT
ATOM      1  P   PO4 A1919      24.407   4.631   4.881  0.00  0.00    +0.000 P 
ATOM      2  O1  PO4 A1919      23.000   4.388   4.385  0.00  0.00    +0.000 OA
ATOM      3  O2  PO4 A1919      25.402   4.059   3.909  0.00  0.00    +0.000 OA
ATOM      4  O3  PO4 A1919      24.626   6.122   5.014  0.00  0.00    +0.000 OA
ATOM      5  O4  PO4 A1919      24.582   3.971   6.229  0.00  0.00    +0.000 OA
ENDROOT
TORSDOF 0
ENDMDL
MODEL 4
REMARK VINA RESULT:      -2.6      9.004     10.011
REMARK  Name = ligand_pdbs\PO4_A_1919 .pdb
REMARK  0 active torsions:
REMARK  status: ('A' for Active; 'I' for Inactive)
REMARK                            x       y       z     vdW  Elec       q    Type
REMARK                         _______ _______ _______ _____ _____    ______ ____
ROOT
ATOM      1  P   PO4 A1919      24.382   4.661   4.877  0.00  0.00    +0.000 P 
ATOM      2  O1  PO4 A1919      24.557   4.004   6.227  0.00  0.00    +0.000 OA
ATOM      3  O2  PO4 A1919      24.603   6.145   4.994  0.00  0.00    +0.000 OA
ATOM      4  O3  PO4 A1919      25.388   4.071   3.914  0.00  0.00    +0.000 OA
ATOM      5  O4  PO4 A1919      22.982   4.398   4.372  0.00  0.00    +0.000 OA
ENDROOT
TORSDOF 0
ENDMDL
MODEL 5
REMARK VINA RESULT:      -2.6      9.012      9.965
REMARK  Name = ligand_pdbs\PO4_A_1919 .pdb
REMARK  0 active torsions:
REMARK  status: ('A' for Active; 'I' for Inactive)
REMARK                            x       y       z     vdW  Elec       q    Type
REMARK                         _______ _______ _______ _____ _____    ______ ____
ROOT
ATOM      1  P   PO4 A1919      24.374   4.640   4.881  0.00  0.00    +0.000 P 
ATOM      2  O1  PO4 A1919      24.589   6.133   4.986  0.00  0.00    +0.000 OA
ATOM      3  O2  PO4 A1919      24.550   3.998   6.230  0.00  0.00    +0.000 OA
ATOM      4  O3  PO4 A1919      22.971   4.385   4.376  0.00  0.00    +0.000 OA
ATOM      5  O4  PO4 A1919      25.375   4.058   3.911  0.00  0.00    +0.000 OA
ENDROOT
TORSDOF 0
ENDMDL
MODEL 6
REMARK VINA RESULT:      -2.6      7.872      8.628
REMARK  Name = ligand_pdbs\PO4_A_1919 .pdb
REMARK  0 active torsions:
REMARK  status: ('A' for Active; 'I' for Inactive)
REMARK                            x       y       z     vdW  Elec       q    Type
REMARK                         _______ _______ _______ _____ _____    ______ ____
ROOT
ATOM      1  P   PO4 A1919      25.526   6.945   4.750  0.00  0.00    +0.000 P 
ATOM      2  O1  PO4 A1919      25.179   8.140   5.608  0.00  0.00    +0.000 OA
ATOM      3  O2  PO4 A1919      25.211   7.237   3.308  0.00  0.00    +0.000 OA
ATOM      4  O3  PO4 A1919      27.001   6.649   4.899  0.00  0.00    +0.000 OA
ATOM      5  O4  PO4 A1919      24.721   5.751   5.210  0.00  0.00    +0.000 OA
ENDROOT
TORSDOF 0
ENDMDL
MODEL 7
REMARK VINA RESULT:      -2.6      7.873      8.422
REMARK  Name = ligand_pdbs\PO4_A_1919 .pdb
REMARK  0 active torsions:
REMARK  status: ('A' for Active; 'I' for Inactive)
REMARK                            x       y       z     vdW  Elec       q    Type
REMARK                         _______ _______ _______ _____ _____    ______ ____
ROOT
ATOM      1  P   PO4 A1919      25.524   6.944   4.752  0.00  0.00    +0.000 P 
ATOM      2  O1  PO4 A1919      27.000   6.646   4.882  0.00  0.00    +0.000 OA
ATOM      3  O2  PO4 A1919      24.717   5.759   5.210  0.00  0.00    +0.000 OA
ATOM      4  O3  PO4 A1919      25.192   8.146   5.607  0.00  0.00    +0.000 OA
ATOM      5  O4  PO4 A1919      25.201   7.245   3.307  0.00  0.00    +0.000 OA
ENDROOT
TORSDOF 0
ENDMDL
MODEL 8
REMARK VINA RESULT:      -2.6      9.065      9.852
REMARK  Name = ligand_pdbs\PO4_A_1919 .pdb
REMARK  0 active torsions:
REMARK  status: ('A' for Active; 'I' for Inactive)
REMARK                            x       y       z     vdW  Elec       q    Type
REMARK                         _______ _______ _______ _____ _____    ______ ____
ROOT
ATOM      1  P   PO4 A1919      26.895   5.828   4.635  0.00  0.00    +0.000 P 
ATOM      2  O1  PO4 A1919      25.711   6.382   3.876  0.00  0.00    +0.000 OA
ATOM      3  O2  PO4 A1919      26.428   4.847   5.676  0.00  0.00    +0.000 OA
ATOM      4  O3  PO4 A1919      27.818   5.133   3.659  0.00  0.00    +0.000 OA
ATOM      5  O4  PO4 A1919      27.632   6.964   5.308  0.00  0.00    +0.000 OA
ENDROOT
TORSDOF 0
ENDMDL
MODEL 9
REMARK VINA RESULT:      -2.6      9.202     10.035
REMARK  Name = ligand_pdbs\PO4_A_1919 .pdb
REMARK  0 active torsions:
REMARK  status: ('A' for Active; 'I' for Inactive)
REMARK                            x       y       z     vdW  Elec       q    Type
REMARK                         _______ _______ _______ _____ _____    ______ ____
ROOT
ATOM      1  P   PO4 A1919      27.169   5.509   4.906  0.00  0.00    +0.000 P 
ATOM      2  O1  PO4 A1919      27.775   4.485   5.838  0.00  0.00    +0.000 OA
ATOM      3  O2  PO4 A1919      27.676   6.883   5.248  0.00  0.00    +0.000 OA
ATOM      4  O3  PO4 A1919      27.555   5.163   3.485  0.00  0.00    +0.000 OA
ATOM      5  O4  PO4 A1919      25.664   5.479   5.042  0.00  0.00    +0.000 OA
ENDROOT
TORSDOF 0
ENDMDL
