MODEL 1
REMARK VINA RESULT:      -6.5      0.000      0.000
REMARK  Name = ligand_pdbs\PTR.pdb
REMARK  5 active torsions:
REMARK  status: ('A' for Active; 'I' for Inactive)
REMARK    1  A    between atoms: CA_2  and  C_3
REMARK    2  A    between atoms: CA_2  and  CB_5
REMARK    3  A    between atoms: CB_5  and  CG_6
REMARK    4  A    between atoms: CZ_11  and  OH_12
REMARK    5  A    between atoms: OH_12  and  P_13
REMARK                            x       y       z     vdW  Elec       q    Type
REMARK                         _______ _______ _______ _____ _____    ______ ____
ROOT
ATOM      1  CG  PTR A 359      27.393   0.584   2.984  0.00  0.00    +0.000 A 
ATOM      2  CD1 PTR A 359      28.125   1.633   3.521  0.00  0.00    +0.000 A 
ATOM      3  CD2 PTR A 359      26.051   0.798   2.714  0.00  0.00    +0.000 A 
ATOM      4  CE1 PTR A 359      27.547   2.866   3.775  0.00  0.00    +0.000 A 
ATOM      5  CE2 PTR A 359      25.446   2.019   2.959  0.00  0.00    +0.000 A 
ATOM      6  CZ  PTR A 359      26.205   3.045   3.493  0.00  0.00    +0.000 A 
ENDROOT
BRANCH   1   7
ATOM      7  CB  PTR A 359      28.035  -0.754   2.719  0.00  0.00    +0.000 C 
BRANCH   7   9
ATOM      8  N   PTR A 359      29.602  -2.441   3.627  0.00  0.00    +0.000 NA
ATOM      9  CA  PTR A 359      28.507  -1.496   3.973  0.00  0.00    +0.000 C 
BRANCH   9  10
ATOM     10  C   PTR A 359      27.358  -2.289   4.604  0.00  0.00    +0.000 C 
ATOM     11  O   PTR A 359      26.714  -1.760   5.532  0.00  0.00    +0.000 OA
ENDBRANCH   9  10
ENDBRANCH   7   9
ENDBRANCH   1   7
BRANCH   6  12
ATOM     12  OH  PTR A 359      25.638   4.298   3.755  0.00  0.00    +0.000 OA
BRANCH  12  13
ATOM     13  P   PTR A 359      24.574   4.621   4.899  0.00  0.00    +0.000 P 
ATOM     14  O1P PTR A 359      24.910   3.801   6.121  0.00  0.00    +0.000 OA
ATOM     15  O2P PTR A 359      24.672   6.093   5.211  0.00  0.00    +0.000 OA
ATOM     16  O3P PTR A 359      23.188   4.285   4.402  0.00  0.00    +0.000 OA
ENDBRANCH  12  13
ENDBRANCH   6  12
TORSDOF 5
ENDMDL
MODEL 2
REMARK VINA RESULT:      -6.3      3.219      6.081
REMARK  Name = ligand_pdbs\PTR.pdb
REMARK  5 active torsions:
REMARK  status: ('A' for Active; 'I' for Inactive)
REMARK    1  A    between atoms: CA_2  and  C_3
REMARK    2  A    between atoms: CA_2  and  CB_5
REMARK    3  A    between atoms: CB_5  and  CG_6
REMARK    4  A    between atoms: CZ_11  and  OH_12
REMARK    5  A    between atoms: OH_12  and  P_13
REMARK                            x       y       z     vdW  Elec       q    Type
REMARK                         _______ _______ _______ _____ _____    ______ ____
ROOT
ATOM      1  CG  PTR A 359      26.663   3.435   3.642  0.00  0.00    +0.000 A 
ATOM      2  CD1 PTR A 359      25.916   2.433   3.041  0.00  0.00    +0.000 A 
ATOM      3  CD2 PTR A 359      27.957   3.135   4.034  0.00  0.00    +0.000 A 
ATOM      4  CE1 PTR A 359      26.438   1.169   2.822  0.00  0.00    +0.000 A 
ATOM      5  CE2 PTR A 359      28.506   1.880   3.831  0.00  0.00    +0.000 A 
ATOM      6  CZ  PTR A 359      27.734   0.904   3.226  0.00  0.00    +0.000 A 
ENDROOT
BRANCH   1   7
ATOM      7  CB  PTR A 359      26.077   4.804   3.879  0.00  0.00    +0.000 C 
BRANCH   7   9
ATOM      8  N   PTR A 359      25.326   3.707   5.967  0.00  0.00    +0.000 NA
ATOM      9  CA  PTR A 359      25.157   4.904   5.099  0.00  0.00    +0.000 C 
BRANCH   9  10
ATOM     10  C   PTR A 359      23.689   4.995   4.671  0.00  0.00    +0.000 C 
ATOM     11  O   PTR A 359      23.092   3.940   4.377  0.00  0.00    +0.000 OA
ENDBRANCH   9  10
ENDBRANCH   7   9
ENDBRANCH   1   7
BRANCH   6  12
ATOM     12  OH  PTR A 359      28.246  -0.379   2.996  0.00  0.00    +0.000 OA
BRANCH  12  13
ATOM     13  P   PTR A 359      28.181  -1.606   4.013  0.00  0.00    +0.000 P 
ATOM     14  O1P PTR A 359      28.302  -1.077   5.422  0.00  0.00    +0.000 OA
ATOM     15  O2P PTR A 359      26.850  -2.287   3.820  0.00  0.00    +0.000 OA
ATOM     16  O3P PTR A 359      29.306  -2.567   3.711  0.00  0.00    +0.000 OA
ENDBRANCH  12  13
ENDBRANCH   6  12
TORSDOF 5
ENDMDL
MODEL 3
REMARK VINA RESULT:      -6.2      3.806      6.394
REMARK  Name = ligand_pdbs\PTR.pdb
REMARK  5 active torsions:
REMARK  status: ('A' for Active; 'I' for Inactive)
REMARK    1  A    between atoms: CA_2  and  C_3
REMARK    2  A    between atoms: CA_2  and  CB_5
REMARK    3  A    between atoms: CB_5  and  CG_6
REMARK    4  A    between atoms: CZ_11  and  OH_12
REMARK    5  A    between atoms: OH_12  and  P_13
REMARK                            x       y       z     vdW  Elec       q    Type
REMARK                         _______ _______ _______ _____ _____    ______ ____
ROOT
ATOM      1  CG  PTR A 359      26.668   3.283   3.405  0.00  0.00    +0.000 A 
ATOM      2  CD1 PTR A 359      25.611   2.430   3.129  0.00  0.00    +0.000 A 
ATOM      3  CD2 PTR A 359      27.920   2.724   3.607  0.00  0.00    +0.000 A 
ATOM      4  CE1 PTR A 359      25.787   1.059   3.044  0.00  0.00    +0.000 A 
ATOM      5  CE2 PTR A 359      28.127   1.357   3.530  0.00  0.00    +0.000 A 
ATOM      6  CZ  PTR A 359      27.050   0.534   3.250  0.00  0.00    +0.000 A 
ENDROOT
BRANCH   1   7
ATOM      7  CB  PTR A 359      26.459   4.773   3.501  0.00  0.00    +0.000 C 
BRANCH   7   9
ATOM      8  N   PTR A 359      24.648   5.180   5.139  0.00  0.00    +0.000 NA
ATOM      9  CA  PTR A 359      26.114   5.281   4.904  0.00  0.00    +0.000 C 
BRANCH   9  10
ATOM     10  C   PTR A 359      26.537   6.744   5.075  0.00  0.00    +0.000 C 
ATOM     11  O   PTR A 359      27.739   6.988   5.302  0.00  0.00    +0.000 OA
ENDBRANCH   9  10
ENDBRANCH   7   9
ENDBRANCH   1   7
BRANCH   6  12
ATOM     12  OH  PTR A 359      27.210  -0.854   3.159  0.00  0.00    +0.000 OA
BRANCH  12  13
ATOM     13  P   PTR A 359      27.801  -1.802   4.297  0.00  0.00    +0.000 P 
ATOM     14  O1P PTR A 359      26.862  -2.968   4.496  0.00  0.00    +0.000 OA
ATOM     15  O2P PTR A 359      29.150  -2.288   3.830  0.00  0.00    +0.000 OA
ATOM     16  O3P PTR A 359      27.946  -1.016   5.579  0.00  0.00    +0.000 OA
ENDBRANCH  12  13
ENDBRANCH   6  12
TORSDOF 5
ENDMDL
MODEL 4
REMARK VINA RESULT:      -6.1      3.868      6.330
REMARK  Name = ligand_pdbs\PTR.pdb
REMARK  5 active torsions:
REMARK  status: ('A' for Active; 'I' for Inactive)
REMARK    1  A    between atoms: CA_2  and  C_3
REMARK    2  A    between atoms: CA_2  and  CB_5
REMARK    3  A    between atoms: CB_5  and  CG_6
REMARK    4  A    between atoms: CZ_11  and  OH_12
REMARK    5  A    between atoms: OH_12  and  P_13
REMARK                            x       y       z     vdW  Elec       q    Type
REMARK                         _______ _______ _______ _____ _____    ______ ____
ROOT
ATOM      1  CG  PTR A 359      27.619   4.638   4.938  0.00  0.00    +0.000 A 
ATOM      2  CD1 PTR A 359      27.775   3.906   6.105  0.00  0.00    +0.000 A 
ATOM      3  CD2 PTR A 359      27.681   3.960   3.731  0.00  0.00    +0.000 A 
ATOM      4  CE1 PTR A 359      27.975   2.536   6.081  0.00  0.00    +0.000 A 
ATOM      5  CE2 PTR A 359      27.881   2.591   3.675  0.00  0.00    +0.000 A 
ATOM      6  CZ  PTR A 359      28.029   1.890   4.859  0.00  0.00    +0.000 A 
ENDROOT
BRANCH   1   7
ATOM      7  CB  PTR A 359      27.409   6.131   4.979  0.00  0.00    +0.000 C 
BRANCH   7   9
ATOM      8  N   PTR A 359      25.939   8.078   4.563  0.00  0.00    +0.000 NA
ATOM      9  CA  PTR A 359      26.076   6.606   4.397  0.00  0.00    +0.000 C 
BRANCH   9  10
ATOM     10  C   PTR A 359      24.898   5.923   5.099  0.00  0.00    +0.000 C 
ATOM     11  O   PTR A 359      23.974   5.467   4.395  0.00  0.00    +0.000 OA
ENDBRANCH   9  10
ENDBRANCH   7   9
ENDBRANCH   1   7
BRANCH   6  12
ATOM     12  OH  PTR A 359      28.231   0.505   4.855  0.00  0.00    +0.000 OA
BRANCH  12  13
ATOM     13  P   PTR A 359      27.152  -0.594   4.437  0.00  0.00    +0.000 P 
ATOM     14  O1P PTR A 359      25.791   0.057   4.384  0.00  0.00    +0.000 OA
ATOM     15  O2P PTR A 359      27.537  -1.115   3.075  0.00  0.00    +0.000 OA
ATOM     16  O3P PTR A 359      27.163  -1.717   5.447  0.00  0.00    +0.000 OA
ENDBRANCH  12  13
ENDBRANCH   6  12
TORSDOF 5
ENDMDL
MODEL 5
REMARK VINA RESULT:      -6.0      2.021      2.584
REMARK  Name = ligand_pdbs\PTR.pdb
REMARK  5 active torsions:
REMARK  status: ('A' for Active; 'I' for Inactive)
REMARK    1  A    between atoms: CA_2  and  C_3
REMARK    2  A    between atoms: CA_2  and  CB_5
REMARK    3  A    between atoms: CB_5  and  CG_6
REMARK    4  A    between atoms: CZ_11  and  OH_12
REMARK    5  A    between atoms: OH_12  and  P_13
REMARK                            x       y       z     vdW  Elec       q    Type
REMARK                         _______ _______ _______ _____ _____    ______ ____
ROOT
ATOM      1  CG  PTR A 359      28.058   2.158   4.700  0.00  0.00    +0.000 A 
ATOM      2  CD1 PTR A 359      28.060   2.891   5.877  0.00  0.00    +0.000 A 
ATOM      3  CD2 PTR A 359      27.689   2.804   3.531  0.00  0.00    +0.000 A 
ATOM      4  CE1 PTR A 359      27.717   4.233   5.898  0.00  0.00    +0.000 A 
ATOM      5  CE2 PTR A 359      27.339   4.144   3.521  0.00  0.00    +0.000 A 
ATOM      6  CZ  PTR A 359      27.354   4.847   4.713  0.00  0.00    +0.000 A 
ENDROOT
BRANCH   1   7
ATOM      7  CB  PTR A 359      28.428   0.696   4.695  0.00  0.00    +0.000 C 
BRANCH   7   9
ATOM      8  N   PTR A 359      26.156  -0.258   4.928  0.00  0.00    +0.000 NA
ATOM      9  CA  PTR A 359      27.375  -0.228   4.076  0.00  0.00    +0.000 C 
BRANCH   9  10
ATOM     10  C   PTR A 359      27.913  -1.655   3.940  0.00  0.00    +0.000 C 
ATOM     11  O   PTR A 359      27.385  -2.554   4.626  0.00  0.00    +0.000 OA
ENDBRANCH   9  10
ENDBRANCH   7   9
ENDBRANCH   1   7
BRANCH   6  12
ATOM     12  OH  PTR A 359      27.011   6.204   4.752  0.00  0.00    +0.000 OA
BRANCH  12  13
ATOM     13  P   PTR A 359      25.530   6.794   4.700  0.00  0.00    +0.000 P 
ATOM     14  O1P PTR A 359      24.568   5.739   5.191  0.00  0.00    +0.000 OA
ATOM     15  O2P PTR A 359      25.489   8.002   5.603  0.00  0.00    +0.000 OA
ATOM     16  O3P PTR A 359      25.199   7.193   3.282  0.00  0.00    +0.000 OA
ENDBRANCH  12  13
ENDBRANCH   6  12
TORSDOF 5
ENDMDL
MODEL 6
REMARK VINA RESULT:      -6.0      4.008      6.668
REMARK  Name = ligand_pdbs\PTR.pdb
REMARK  5 active torsions:
REMARK  status: ('A' for Active; 'I' for Inactive)
REMARK    1  A    between atoms: CA_2  and  C_3
REMARK    2  A    between atoms: CA_2  and  CB_5
REMARK    3  A    between atoms: CB_5  and  CG_6
REMARK    4  A    between atoms: CZ_11  and  OH_12
REMARK    5  A    between atoms: OH_12  and  P_13
REMARK                            x       y       z     vdW  Elec       q    Type
REMARK                         _______ _______ _______ _____ _____    ______ ____
ROOT
ATOM      1  CG  PTR A 359      26.732   3.683   5.159  0.00  0.00    +0.000 A 
ATOM      2  CD1 PTR A 359      27.290   2.916   6.170  0.00  0.00    +0.000 A 
ATOM      3  CD2 PTR A 359      27.025   3.344   3.848  0.00  0.00    +0.000 A 
ATOM      4  CE1 PTR A 359      28.109   1.835   5.894  0.00  0.00    +0.000 A 
ATOM      5  CE2 PTR A 359      27.842   2.269   3.540  0.00  0.00    +0.000 A 
ATOM      6  CZ  PTR A 359      28.381   1.523   4.574  0.00  0.00    +0.000 A 
ENDROOT
BRANCH   1   7
ATOM      7  CB  PTR A 359      25.847   4.862   5.476  0.00  0.00    +0.000 C 
BRANCH   7   9
ATOM      8  N   PTR A 359      27.476   6.697   5.152  0.00  0.00    +0.000 NA
ATOM      9  CA  PTR A 359      26.176   6.137   4.695  0.00  0.00    +0.000 C 
BRANCH   9  10
ATOM     10  C   PTR A 359      25.089   7.197   4.895  0.00  0.00    +0.000 C 
ATOM     11  O   PTR A 359      25.353   8.188   5.606  0.00  0.00    +0.000 OA
ENDBRANCH   9  10
ENDBRANCH   7   9
ENDBRANCH   1   7
BRANCH   6  12
ATOM     12  OH  PTR A 359      29.210   0.425   4.313  0.00  0.00    +0.000 OA
BRANCH  12  13
ATOM     13  P   PTR A 359      28.721  -1.038   3.907  0.00  0.00    +0.000 P 
ATOM     14  O1P PTR A 359      29.932  -1.918   3.708  0.00  0.00    +0.000 OA
ATOM     15  O2P PTR A 359      27.869  -1.564   5.034  0.00  0.00    +0.000 OA
ATOM     16  O3P PTR A 359      27.910  -0.960   2.635  0.00  0.00    +0.000 OA
ENDBRANCH  12  13
ENDBRANCH   6  12
TORSDOF 5
ENDMDL
MODEL 7
REMARK VINA RESULT:      -5.9      2.306      2.828
REMARK  Name = ligand_pdbs\PTR.pdb
REMARK  5 active torsions:
REMARK  status: ('A' for Active; 'I' for Inactive)
REMARK    1  A    between atoms: CA_2  and  C_3
REMARK    2  A    between atoms: CA_2  and  CB_5
REMARK    3  A    between atoms: CB_5  and  CG_6
REMARK    4  A    between atoms: CZ_11  and  OH_12
REMARK    5  A    between atoms: OH_12  and  P_13
REMARK                            x       y       z     vdW  Elec       q    Type
REMARK                         _______ _______ _______ _____ _____    ______ ____
ROOT
ATOM      1  CG  PTR A 359      27.488   2.067   4.783  0.00  0.00    +0.000 A 
ATOM      2  CD1 PTR A 359      27.164   2.700   5.973  0.00  0.00    +0.000 A 
ATOM      3  CD2 PTR A 359      27.523   2.831   3.627  0.00  0.00    +0.000 A 
ATOM      4  CE1 PTR A 359      26.893   4.058   6.023  0.00  0.00    +0.000 A 
ATOM      5  CE2 PTR A 359      27.255   4.189   3.646  0.00  0.00    +0.000 A 
ATOM      6  CZ  PTR A 359      26.939   4.791   4.851  0.00  0.00    +0.000 A 
ENDROOT
BRANCH   1   7
ATOM      7  CB  PTR A 359      27.773   0.587   4.743  0.00  0.00    +0.000 C 
BRANCH   7   9
ATOM      8  N   PTR A 359      29.495  -1.109   4.209  0.00  0.00    +0.000 NA
ATOM      9  CA  PTR A 359      29.256   0.218   4.837  0.00  0.00    +0.000 C 
BRANCH   9  10
ATOM     10  C   PTR A 359      29.713   0.157   6.298  0.00  0.00    +0.000 C 
ATOM     11  O   PTR A 359      30.405   1.096   6.741  0.00  0.00    +0.000 OA
ENDBRANCH   9  10
ENDBRANCH   7   9
ENDBRANCH   1   7
BRANCH   6  12
ATOM     12  OH  PTR A 359      26.664   6.162   4.921  0.00  0.00    +0.000 OA
BRANCH  12  13
ATOM     13  P   PTR A 359      25.255   6.848   4.621  0.00  0.00    +0.000 P 
ATOM     14  O1P PTR A 359      24.160   5.840   4.873  0.00  0.00    +0.000 OA
ATOM     15  O2P PTR A 359      25.112   8.023   5.555  0.00  0.00    +0.000 OA
ATOM     16  O3P PTR A 359      25.221   7.316   3.185  0.00  0.00    +0.000 OA
ENDBRANCH  12  13
ENDBRANCH   6  12
TORSDOF 5
ENDMDL
MODEL 8
REMARK VINA RESULT:      -5.9      1.808      2.391
REMARK  Name = ligand_pdbs\PTR.pdb
REMARK  5 active torsions:
REMARK  status: ('A' for Active; 'I' for Inactive)
REMARK    1  A    between atoms: CA_2  and  C_3
REMARK    2  A    between atoms: CA_2  and  CB_5
REMARK    3  A    between atoms: CB_5  and  CG_6
REMARK    4  A    between atoms: CZ_11  and  OH_12
REMARK    5  A    between atoms: OH_12  and  P_13
REMARK                            x       y       z     vdW  Elec       q    Type
REMARK                         _______ _______ _______ _____ _____    ______ ____
ROOT
ATOM      1  CG  PTR A 359      27.237   1.161   4.805  0.00  0.00    +0.000 A 
ATOM      2  CD1 PTR A 359      27.881   2.225   5.418  0.00  0.00    +0.000 A 
ATOM      3  CD2 PTR A 359      26.373   1.438   3.759  0.00  0.00    +0.000 A 
ATOM      4  CE1 PTR A 359      27.684   3.531   5.000  0.00  0.00    +0.000 A 
ATOM      5  CE2 PTR A 359      26.155   2.733   3.320  0.00  0.00    +0.000 A 
ATOM      6  CZ  PTR A 359      26.815   3.773   3.952  0.00  0.00    +0.000 A 
ENDROOT
BRANCH   1   7
ATOM      7  CB  PTR A 359      27.457  -0.254   5.276  0.00  0.00    +0.000 C 
BRANCH   7   9
ATOM      8  N   PTR A 359      27.038  -2.589   4.566  0.00  0.00    +0.000 NA
ATOM      9  CA  PTR A 359      27.622  -1.284   4.155  0.00  0.00    +0.000 C 
BRANCH   9  10
ATOM     10  C   PTR A 359      29.102  -1.494   3.819  0.00  0.00    +0.000 C 
ATOM     11  O   PTR A 359      29.502  -2.657   3.614  0.00  0.00    +0.000 OA
ENDBRANCH   9  10
ENDBRANCH   7   9
ENDBRANCH   1   7
BRANCH   6  12
ATOM     12  OH  PTR A 359      26.630   5.098   3.542  0.00  0.00    +0.000 OA
BRANCH  12  13
ATOM     13  P   PTR A 359      25.803   6.212   4.330  0.00  0.00    +0.000 P 
ATOM     14  O1P PTR A 359      25.165   7.144   3.329  0.00  0.00    +0.000 OA
ATOM     15  O2P PTR A 359      24.744   5.507   5.139  0.00  0.00    +0.000 OA
ATOM     16  O3P PTR A 359      26.734   6.974   5.243  0.00  0.00    +0.000 OA
ENDBRANCH  12  13
ENDBRANCH   6  12
TORSDOF 5
ENDMDL
MODEL 9
REMARK VINA RESULT:      -5.9      1.665      2.572
REMARK  Name = ligand_pdbs\PTR.pdb
REMARK  5 active torsions:
REMARK  status: ('A' for Active; 'I' for Inactive)
REMARK    1  A    between atoms: CA_2  and  C_3
REMARK    2  A    between atoms: CA_2  and  CB_5
REMARK    3  A    between atoms: CB_5  and  CG_6
REMARK    4  A    between atoms: CZ_11  and  OH_12
REMARK    5  A    between atoms: OH_12  and  P_13
REMARK                            x       y       z     vdW  Elec       q    Type
REMARK                         _______ _______ _______ _____ _____    ______ ____
ROOT
ATOM      1  CG  PTR A 359      26.347   1.873   3.567  0.00  0.00    +0.000 A 
ATOM      2  CD1 PTR A 359      25.068   2.148   4.024  0.00  0.00    +0.000 A 
ATOM      3  CD2 PTR A 359      27.317   2.851   3.719  0.00  0.00    +0.000 A 
ATOM      4  CE1 PTR A 359      24.755   3.354   4.629  0.00  0.00    +0.000 A 
ATOM      5  CE2 PTR A 359      27.035   4.067   4.318  0.00  0.00    +0.000 A 
ATOM      6  CZ  PTR A 359      25.748   4.308   4.766  0.00  0.00    +0.000 A 
ENDROOT
BRANCH   1   7
ATOM      7  CB  PTR A 359      26.669   0.558   2.904  0.00  0.00    +0.000 C 
BRANCH   7   9
ATOM      8  N   PTR A 359      27.944  -1.564   2.907  0.00  0.00    +0.000 NA
ATOM      9  CA  PTR A 359      27.715  -0.288   3.637  0.00  0.00    +0.000 C 
BRANCH   9  10
ATOM     10  C   PTR A 359      27.255  -0.614   5.061  0.00  0.00    +0.000 C 
ATOM     11  O   PTR A 359      26.806  -1.755   5.290  0.00  0.00    +0.000 OA
ENDBRANCH   9  10
ENDBRANCH   7   9
ENDBRANCH   1   7
BRANCH   6  12
ATOM     12  OH  PTR A 359      25.415   5.521   5.381  0.00  0.00    +0.000 OA
BRANCH  12  13
ATOM     13  P   PTR A 359      25.723   6.976   4.803  0.00  0.00    +0.000 P 
ATOM     14  O1P PTR A 359      27.198   7.259   4.960  0.00  0.00    +0.000 OA
ATOM     15  O2P PTR A 359      25.341   6.977   3.344  0.00  0.00    +0.000 OA
ATOM     16  O3P PTR A 359      24.906   7.998   5.557  0.00  0.00    +0.000 OA
ENDBRANCH  12  13
ENDBRANCH   6  12
TORSDOF 5
ENDMDL
