MODEL 1
REMARK VINA RESULT:      -6.3      0.000      0.000
REMARK  Name = ligand_pdbs\PUI.pdb
REMARK  0 active torsions:
REMARK  status: ('A' for Active; 'I' for Inactive)
REMARK                            x       y       z     vdW  Elec       q    Type
REMARK                         _______ _______ _______ _____ _____    ______ ____
ROOT
ATOM      1  C1  PUI A 701      23.378   4.548   4.555  0.00  0.00    +0.000 C 
ATOM      2  C2  PUI A 701      24.883   4.593   4.489  0.00  0.00    +0.000 C 
ATOM      3  C3  PUI A 701      25.527   5.734   4.881  0.00  0.00    +0.000 C 
ATOM      4  C4  PUI A 701      26.930   5.805   4.834  0.00  0.00    +0.000 C 
ATOM      5  C7  PUI A 701      27.081   3.622   4.017  0.00  0.00    +0.000 C 
ATOM      6  C8  PUI A 701      27.862   2.525   3.570  0.00  0.00    +0.000 C 
ATOM      7  C12 PUI A 701      25.658   3.488   4.041  0.00  0.00    +0.000 C 
ATOM      8  N5  PUI A 701      27.550   6.977   5.238  0.00  0.00    +0.000 NA
ATOM      9  N6  PUI A 701      27.647   4.772   4.416  0.00  0.00    +0.000 NA
ATOM     10  C9  PUI A 701      27.219   1.378   3.175  0.00  0.00    +0.000 C 
ATOM     11  C10 PUI A 701      25.822   1.315   3.222  0.00  0.00    +0.000 C 
ATOM     12  N11 PUI A 701      25.097   2.334   3.640  0.00  0.00    +0.000 NA
ENDROOT
TORSDOF 0
ENDMDL
MODEL 2
REMARK VINA RESULT:      -6.2      1.756      3.678
REMARK  Name = ligand_pdbs\PUI.pdb
REMARK  0 active torsions:
REMARK  status: ('A' for Active; 'I' for Inactive)
REMARK                            x       y       z     vdW  Elec       q    Type
REMARK                         _______ _______ _______ _____ _____    ______ ____
ROOT
ATOM      1  C1  PUI A 701      24.209   2.580   4.270  0.00  0.00    +0.000 C 
ATOM      2  C2  PUI A 701      25.557   3.212   4.499  0.00  0.00    +0.000 C 
ATOM      3  C3  PUI A 701      26.663   2.410   4.548  0.00  0.00    +0.000 C 
ATOM      4  C4  PUI A 701      27.935   2.972   4.757  0.00  0.00    +0.000 C 
ATOM      5  C7  PUI A 701      27.040   5.127   4.868  0.00  0.00    +0.000 C 
ATOM      6  C8  PUI A 701      27.212   6.526   5.029  0.00  0.00    +0.000 C 
ATOM      7  C12 PUI A 701      25.721   4.617   4.659  0.00  0.00    +0.000 C 
ATOM      8  N5  PUI A 701      29.034   2.130   4.801  0.00  0.00    +0.000 NA
ATOM      9  N6  PUI A 701      28.082   4.281   4.905  0.00  0.00    +0.000 NA
ATOM     10  C9  PUI A 701      26.103   7.335   4.981  0.00  0.00    +0.000 C 
ATOM     11  C10 PUI A 701      24.841   6.768   4.775  0.00  0.00    +0.000 C 
ATOM     12  N11 PUI A 701      24.682   5.468   4.622  0.00  0.00    +0.000 NA
ENDROOT
TORSDOF 0
ENDMDL
MODEL 3
REMARK VINA RESULT:      -6.1      2.209      3.064
REMARK  Name = ligand_pdbs\PUI.pdb
REMARK  0 active torsions:
REMARK  status: ('A' for Active; 'I' for Inactive)
REMARK                            x       y       z     vdW  Elec       q    Type
REMARK                         _______ _______ _______ _____ _____    ______ ____
ROOT
ATOM      1  C1  PUI A 701      25.803   1.446   2.612  0.00  0.00    +0.000 C 
ATOM      2  C2  PUI A 701      26.749   2.147   3.552  0.00  0.00    +0.000 C 
ATOM      3  C3  PUI A 701      26.833   3.511   3.509  0.00  0.00    +0.000 C 
ATOM      4  C4  PUI A 701      27.704   4.193   4.376  0.00  0.00    +0.000 C 
ATOM      5  C7  PUI A 701      28.419   2.191   5.343  0.00  0.00    +0.000 C 
ATOM      6  C8  PUI A 701      29.225   1.494   6.280  0.00  0.00    +0.000 C 
ATOM      7  C12 PUI A 701      27.553   1.440   4.488  0.00  0.00    +0.000 C 
ATOM      8  N5  PUI A 701      27.764   5.576   4.305  0.00  0.00    +0.000 NA
ATOM      9  N6  PUI A 701      28.451   3.530   5.247  0.00  0.00    +0.000 NA
ATOM     10  C9  PUI A 701      29.144   0.124   6.325  0.00  0.00    +0.000 C 
ATOM     11  C10 PUI A 701      28.277  -0.548   5.458  0.00  0.00    +0.000 C 
ATOM     12  N11 PUI A 701      27.525   0.100   4.590  0.00  0.00    +0.000 NA
ENDROOT
TORSDOF 0
ENDMDL
MODEL 4
REMARK VINA RESULT:      -6.0      1.709      3.570
REMARK  Name = ligand_pdbs\PUI.pdb
REMARK  0 active torsions:
REMARK  status: ('A' for Active; 'I' for Inactive)
REMARK                            x       y       z     vdW  Elec       q    Type
REMARK                         _______ _______ _______ _____ _____    ______ ____
ROOT
ATOM      1  C1  PUI A 701      27.509   6.473   5.024  0.00  0.00    +0.000 C 
ATOM      2  C2  PUI A 701      27.178   5.027   4.768  0.00  0.00    +0.000 C 
ATOM      3  C3  PUI A 701      28.199   4.125   4.657  0.00  0.00    +0.000 C 
ATOM      4  C4  PUI A 701      27.921   2.767   4.421  0.00  0.00    +0.000 C 
ATOM      5  C7  PUI A 701      25.621   3.170   4.405  0.00  0.00    +0.000 C 
ATOM      6  C8  PUI A 701      24.288   2.700   4.281  0.00  0.00    +0.000 C 
ATOM      7  C12 PUI A 701      25.838   4.563   4.645  0.00  0.00    +0.000 C 
ATOM      8  N5  PUI A 701      28.982   1.881   4.313  0.00  0.00    +0.000 NA
ATOM      9  N6  PUI A 701      26.672   2.341   4.307  0.00  0.00    +0.000 NA
ATOM     10  C9  PUI A 701      23.259   3.603   4.391  0.00  0.00    +0.000 C 
ATOM     11  C10 PUI A 701      23.544   4.952   4.623  0.00  0.00    +0.000 C 
ATOM     12  N11 PUI A 701      24.782   5.389   4.743  0.00  0.00    +0.000 NA
ENDROOT
TORSDOF 0
ENDMDL
MODEL 5
REMARK VINA RESULT:      -5.8      1.720      3.185
REMARK  Name = ligand_pdbs\PUI.pdb
REMARK  0 active torsions:
REMARK  status: ('A' for Active; 'I' for Inactive)
REMARK                            x       y       z     vdW  Elec       q    Type
REMARK                         _______ _______ _______ _____ _____    ______ ____
ROOT
ATOM      1  C1  PUI A 701      27.238   6.530   5.030  0.00  0.00    +0.000 C 
ATOM      2  C2  PUI A 701      26.416   5.269   4.973  0.00  0.00    +0.000 C 
ATOM      3  C3  PUI A 701      25.077   5.365   4.716  0.00  0.00    +0.000 C 
ATOM      4  C4  PUI A 701      24.284   4.206   4.653  0.00  0.00    +0.000 C 
ATOM      5  C7  PUI A 701      26.127   2.839   5.091  0.00  0.00    +0.000 C 
ATOM      6  C8  PUI A 701      26.687   1.550   5.285  0.00  0.00    +0.000 C 
ATOM      7  C12 PUI A 701      26.986   3.980   5.168  0.00  0.00    +0.000 C 
ATOM      8  N5  PUI A 701      22.930   4.340   4.392  0.00  0.00    +0.000 NA
ATOM      9  N6  PUI A 701      24.820   3.007   4.835  0.00  0.00    +0.000 NA
ATOM     10  C9  PUI A 701      28.032   1.450   5.544  0.00  0.00    +0.000 C 
ATOM     11  C10 PUI A 701      28.814   2.608   5.608  0.00  0.00    +0.000 C 
ATOM     12  N11 PUI A 701      28.294   3.805   5.424  0.00  0.00    +0.000 NA
ENDROOT
TORSDOF 0
ENDMDL
MODEL 6
REMARK VINA RESULT:      -5.8      2.874      5.173
REMARK  Name = ligand_pdbs\PUI.pdb
REMARK  0 active torsions:
REMARK  status: ('A' for Active; 'I' for Inactive)
REMARK                            x       y       z     vdW  Elec       q    Type
REMARK                         _______ _______ _______ _____ _____    ______ ____
ROOT
ATOM      1  C1  PUI A 701      25.713   1.419   2.480  0.00  0.00    +0.000 C 
ATOM      2  C2  PUI A 701      26.526   0.721   3.539  0.00  0.00    +0.000 C 
ATOM      3  C3  PUI A 701      26.426  -0.638   3.659  0.00  0.00    +0.000 C 
ATOM      4  C4  PUI A 701      27.174  -1.317   4.636  0.00  0.00    +0.000 C 
ATOM      5  C7  PUI A 701      28.135   0.675   5.385  0.00  0.00    +0.000 C 
ATOM      6  C8  PUI A 701      29.008   1.369   6.262  0.00  0.00    +0.000 C 
ATOM      7  C12 PUI A 701      27.400   1.424   4.414  0.00  0.00    +0.000 C 
ATOM      8  N5  PUI A 701      27.047  -2.694   4.731  0.00  0.00    +0.000 NA
ATOM      9  N6  PUI A 701      27.987  -0.658   5.448  0.00  0.00    +0.000 NA
ATOM     10  C9  PUI A 701      29.111   2.733   6.144  0.00  0.00    +0.000 C 
ATOM     11  C10 PUI A 701      28.362   3.403   5.172  0.00  0.00    +0.000 C 
ATOM     12  N11 PUI A 701      27.552   2.758   4.355  0.00  0.00    +0.000 NA
ENDROOT
TORSDOF 0
ENDMDL
MODEL 7
REMARK VINA RESULT:      -5.8      2.976      4.832
REMARK  Name = ligand_pdbs\PUI.pdb
REMARK  0 active torsions:
REMARK  status: ('A' for Active; 'I' for Inactive)
REMARK                            x       y       z     vdW  Elec       q    Type
REMARK                         _______ _______ _______ _____ _____    ______ ____
ROOT
ATOM      1  C1  PUI A 701      27.083  -1.862   5.041  0.00  0.00    +0.000 C 
ATOM      2  C2  PUI A 701      26.966  -0.361   5.065  0.00  0.00    +0.000 C 
ATOM      3  C3  PUI A 701      25.807   0.219   4.628  0.00  0.00    +0.000 C 
ATOM      4  C4  PUI A 701      25.667   1.617   4.641  0.00  0.00    +0.000 C 
ATOM      5  C7  PUI A 701      27.813   1.892   5.522  0.00  0.00    +0.000 C 
ATOM      6  C8  PUI A 701      28.856   2.734   5.987  0.00  0.00    +0.000 C 
ATOM      7  C12 PUI A 701      28.016   0.477   5.533  0.00  0.00    +0.000 C 
ATOM      8  N5  PUI A 701      24.479   2.171   4.190  0.00  0.00    +0.000 NA
ATOM      9  N6  PUI A 701      26.648   2.393   5.078  0.00  0.00    +0.000 NA
ATOM     10  C9  PUI A 701      30.021   2.156   6.426  0.00  0.00    +0.000 C 
ATOM     11  C10 PUI A 701      30.154   0.764   6.408  0.00  0.00    +0.000 C 
ATOM     12  N11 PUI A 701      29.183  -0.019   5.979  0.00  0.00    +0.000 NA
ENDROOT
TORSDOF 0
ENDMDL
MODEL 8
REMARK VINA RESULT:      -5.8      1.873      3.112
REMARK  Name = ligand_pdbs\PUI.pdb
REMARK  0 active torsions:
REMARK  status: ('A' for Active; 'I' for Inactive)
REMARK                            x       y       z     vdW  Elec       q    Type
REMARK                         _______ _______ _______ _____ _____    ______ ____
ROOT
ATOM      1  C1  PUI A 701      28.235   4.219   5.055  0.00  0.00    +0.000 C 
ATOM      2  C2  PUI A 701      26.959   5.008   4.919  0.00  0.00    +0.000 C 
ATOM      3  C3  PUI A 701      27.019   6.373   4.958  0.00  0.00    +0.000 C 
ATOM      4  C4  PUI A 701      25.845   7.136   4.832  0.00  0.00    +0.000 C 
ATOM      5  C7  PUI A 701      24.536   5.213   4.620  0.00  0.00    +0.000 C 
ATOM      6  C8  PUI A 701      23.270   4.597   4.445  0.00  0.00    +0.000 C 
ATOM      7  C12 PUI A 701      25.693   4.382   4.744  0.00  0.00    +0.000 C 
ATOM      8  N5  PUI A 701      25.943   8.518   4.877  0.00  0.00    +0.000 NA
ATOM      9  N6  PUI A 701      24.669   6.548   4.668  0.00  0.00    +0.000 NA
ATOM     10  C9  PUI A 701      23.205   3.226   4.406  0.00  0.00    +0.000 C 
ATOM     11  C10 PUI A 701      24.377   2.474   4.535  0.00  0.00    +0.000 C 
ATOM     12  N11 PUI A 701      25.554   3.046   4.694  0.00  0.00    +0.000 NA
ENDROOT
TORSDOF 0
ENDMDL
MODEL 9
REMARK VINA RESULT:      -5.8      2.237      4.209
REMARK  Name = ligand_pdbs\PUI.pdb
REMARK  0 active torsions:
REMARK  status: ('A' for Active; 'I' for Inactive)
REMARK                            x       y       z     vdW  Elec       q    Type
REMARK                         _______ _______ _______ _____ _____    ______ ____
ROOT
ATOM      1  C1  PUI A 701      27.631   4.771   3.550  0.00  0.00    +0.000 C 
ATOM      2  C2  PUI A 701      27.259   3.360   3.922  0.00  0.00    +0.000 C 
ATOM      3  C3  PUI A 701      26.110   2.823   3.412  0.00  0.00    +0.000 C 
ATOM      4  C4  PUI A 701      25.739   1.507   3.740  0.00  0.00    +0.000 C 
ATOM      5  C7  PUI A 701      27.634   1.232   5.076  0.00  0.00    +0.000 C 
ATOM      6  C8  PUI A 701      28.433   0.431   5.933  0.00  0.00    +0.000 C 
ATOM      7  C12 PUI A 701      28.066   2.563   4.782  0.00  0.00    +0.000 C 
ATOM      8  N5  PUI A 701      24.567   0.995   3.205  0.00  0.00    +0.000 NA
ATOM      9  N6  PUI A 701      26.494   0.769   4.540  0.00  0.00    +0.000 NA
ATOM     10  C9  PUI A 701      29.587   0.967   6.448  0.00  0.00    +0.000 C 
ATOM     11  C10 PUI A 701      29.949   2.277   6.119  0.00  0.00    +0.000 C 
ATOM     12  N11 PUI A 701      29.209   3.021   5.321  0.00  0.00    +0.000 NA
ENDROOT
TORSDOF 0
ENDMDL
