MODEL 1
REMARK VINA RESULT:      -5.6      0.000      0.000
REMARK  Name = ligand_pdbs\PWL.pdb
REMARK  0 active torsions:
REMARK  status: ('A' for Active; 'I' for Inactive)
REMARK                            x       y       z     vdW  Elec       q    Type
REMARK                         _______ _______ _______ _____ _____    ______ ____
ROOT
ATOM      1  C2  PWL A 701      25.818   3.043   3.952  0.00  0.00    +0.000 C 
ATOM      2  C3  PWL A 701      24.992   4.106   4.268  0.00  0.00    +0.000 C 
ATOM      3  C4  PWL A 701      25.573   5.317   4.625  0.00  0.00    +0.000 C 
ATOM      4  C6  PWL A 701      26.076   7.392   5.258  0.00  0.00    +0.000 C 
ATOM      5  C7  PWL A 701      27.264   6.787   5.054  0.00  0.00    +0.000 C 
ATOM      6  C8  PWL A 701      26.978   5.416   4.643  0.00  0.00    +0.000 C 
ATOM      7 BR1  PWL A 701      24.970   1.445   3.493  0.00  0.00    +0.000 Br
ATOM      8  N5  PWL A 701      25.058   6.525   4.999  0.00  0.00    +0.000 NA
ATOM      9  N9  PWL A 701      27.725   4.353   4.311  0.00  0.00    +0.000 NA
ATOM     10  C10 PWL A 701      27.216   3.173   3.979  0.00  0.00    +0.000 C 
ATOM     11  N11 PWL A 701      28.069   2.108   3.655  0.00  0.00    +0.000 NA
ENDROOT
TORSDOF 0
ENDMDL
MODEL 2
REMARK VINA RESULT:      -5.5      2.479      3.253
REMARK  Name = ligand_pdbs\PWL.pdb
REMARK  0 active torsions:
REMARK  status: ('A' for Active; 'I' for Inactive)
REMARK                            x       y       z     vdW  Elec       q    Type
REMARK                         _______ _______ _______ _____ _____    ______ ____
ROOT
ATOM      1  C2  PWL A 701      29.140   1.856   5.414  0.00  0.00    +0.000 C 
ATOM      2  C3  PWL A 701      28.768   3.069   5.965  0.00  0.00    +0.000 C 
ATOM      3  C4  PWL A 701      28.012   3.946   5.194  0.00  0.00    +0.000 C 
ATOM      4  C6  PWL A 701      26.840   5.625   4.319  0.00  0.00    +0.000 C 
ATOM      5  C7  PWL A 701      26.881   4.682   3.356  0.00  0.00    +0.000 C 
ATOM      6  C8  PWL A 701      27.650   3.562   3.889  0.00  0.00    +0.000 C 
ATOM      7 BR1  PWL A 701      30.161   0.734   6.500  0.00  0.00    +0.000 Br
ATOM      8  N5  PWL A 701      27.509   5.194   5.426  0.00  0.00    +0.000 NA
ATOM      9  N9  PWL A 701      28.029   2.366   3.417  0.00  0.00    +0.000 NA
ATOM     10  C10 PWL A 701      28.762   1.502   4.109  0.00  0.00    +0.000 C 
ATOM     11  N11 PWL A 701      29.125   0.274   3.536  0.00  0.00    +0.000 NA
ENDROOT
TORSDOF 0
ENDMDL
MODEL 3
REMARK VINA RESULT:      -5.4      2.164      3.931
REMARK  Name = ligand_pdbs\PWL.pdb
REMARK  0 active torsions:
REMARK  status: ('A' for Active; 'I' for Inactive)
REMARK                            x       y       z     vdW  Elec       q    Type
REMARK                         _______ _______ _______ _____ _____    ______ ____
ROOT
ATOM      1  C2  PWL A 701      25.424   4.207   5.116  0.00  0.00    +0.000 C 
ATOM      2  C3  PWL A 701      25.695   2.859   5.276  0.00  0.00    +0.000 C 
ATOM      3  C4  PWL A 701      26.990   2.476   5.604  0.00  0.00    +0.000 C 
ATOM      4  C6  PWL A 701      28.899   1.441   6.099  0.00  0.00    +0.000 C 
ATOM      5  C7  PWL A 701      29.200   2.756   6.096  0.00  0.00    +0.000 C 
ATOM      6  C8  PWL A 701      27.972   3.473   5.767  0.00  0.00    +0.000 C 
ATOM      7 BR1  PWL A 701      23.667   4.648   4.666  0.00  0.00    +0.000 Br
ATOM      8  N5  PWL A 701      27.579   1.262   5.812  0.00  0.00    +0.000 NA
ATOM      9  N9  PWL A 701      27.642   4.763   5.612  0.00  0.00    +0.000 NA
ATOM     10  C10 PWL A 701      26.424   5.176   5.286  0.00  0.00    +0.000 C 
ATOM     11  N11 PWL A 701      26.166   6.547   5.133  0.00  0.00    +0.000 NA
ENDROOT
TORSDOF 0
ENDMDL
MODEL 4
REMARK VINA RESULT:      -5.4      2.558      4.269
REMARK  Name = ligand_pdbs\PWL.pdb
REMARK  0 active torsions:
REMARK  status: ('A' for Active; 'I' for Inactive)
REMARK                            x       y       z     vdW  Elec       q    Type
REMARK                         _______ _______ _______ _____ _____    ______ ____
ROOT
ATOM      1  C2  PWL A 701      26.124   5.674   5.007  0.00  0.00    +0.000 C 
ATOM      2  C3  PWL A 701      27.437   5.294   5.217  0.00  0.00    +0.000 C 
ATOM      3  C4  PWL A 701      27.719   3.944   5.389  0.00  0.00    +0.000 C 
ATOM      4  C6  PWL A 701      28.596   1.924   5.727  0.00  0.00    +0.000 C 
ATOM      5  C7  PWL A 701      27.276   1.712   5.554  0.00  0.00    +0.000 C 
ATOM      6  C8  PWL A 701      26.659   3.017   5.336  0.00  0.00    +0.000 C 
ATOM      7 BR1  PWL A 701      25.817   7.502   4.794  0.00  0.00    +0.000 Br
ATOM      8  N5  PWL A 701      28.874   3.255   5.625  0.00  0.00    +0.000 NA
ATOM      9  N9  PWL A 701      25.409   3.448   5.114  0.00  0.00    +0.000 NA
ATOM     10  C10 PWL A 701      25.090   4.726   4.959  0.00  0.00    +0.000 C 
ATOM     11  N11 PWL A 701      23.753   5.093   4.741  0.00  0.00    +0.000 NA
ENDROOT
TORSDOF 0
ENDMDL
MODEL 5
REMARK VINA RESULT:      -5.4      2.282      4.483
REMARK  Name = ligand_pdbs\PWL.pdb
REMARK  0 active torsions:
REMARK  status: ('A' for Active; 'I' for Inactive)
REMARK                            x       y       z     vdW  Elec       q    Type
REMARK                         _______ _______ _______ _____ _____    ______ ____
ROOT
ATOM      1  C2  PWL A 701      25.110   3.518   4.181  0.00  0.00    +0.000 C 
ATOM      2  C3  PWL A 701      24.829   2.163   4.203  0.00  0.00    +0.000 C 
ATOM      3  C4  PWL A 701      25.829   1.272   3.831  0.00  0.00    +0.000 C 
ATOM      4  C6  PWL A 701      27.110  -0.472   3.302  0.00  0.00    +0.000 C 
ATOM      5  C7  PWL A 701      27.895   0.610   3.125  0.00  0.00    +0.000 C 
ATOM      6  C8  PWL A 701      27.087   1.781   3.455  0.00  0.00    +0.000 C 
ATOM      7 BR1  PWL A 701      23.719   4.657   4.681  0.00  0.00    +0.000 Br
ATOM      8  N5  PWL A 701      25.874  -0.090   3.730  0.00  0.00    +0.000 NA
ATOM      9  N9  PWL A 701      27.301   3.104   3.469  0.00  0.00    +0.000 NA
ATOM     10  C10 PWL A 701      26.374   3.994   3.801  0.00  0.00    +0.000 C 
ATOM     11  N11 PWL A 701      26.678   5.364   3.779  0.00  0.00    +0.000 NA
ENDROOT
TORSDOF 0
ENDMDL
MODEL 6
REMARK VINA RESULT:      -5.4      1.790      2.197
REMARK  Name = ligand_pdbs\PWL.pdb
REMARK  0 active torsions:
REMARK  status: ('A' for Active; 'I' for Inactive)
REMARK                            x       y       z     vdW  Elec       q    Type
REMARK                         _______ _______ _______ _____ _____    ______ ____
ROOT
ATOM      1  C2  PWL A 701      27.166   3.316   4.160  0.00  0.00    +0.000 C 
ATOM      2  C3  PWL A 701      27.754   4.505   4.552  0.00  0.00    +0.000 C 
ATOM      3  C4  PWL A 701      26.940   5.615   4.753  0.00  0.00    +0.000 C 
ATOM      4  C6  PWL A 701      26.029   7.606   5.158  0.00  0.00    +0.000 C 
ATOM      5  C7  PWL A 701      24.995   6.802   4.838  0.00  0.00    +0.000 C 
ATOM      6  C8  PWL A 701      25.552   5.483   4.556  0.00  0.00    +0.000 C 
ATOM      7 BR1  PWL A 701      28.318   1.872   3.899  0.00  0.00    +0.000 Br
ATOM      8  N5  PWL A 701      27.197   6.906   5.117  0.00  0.00    +0.000 NA
ATOM      9  N9  PWL A 701      25.042   4.299   4.189  0.00  0.00    +0.000 NA
ATOM     10  C10 PWL A 701      25.779   3.216   3.972  0.00  0.00    +0.000 C 
ATOM     11  N11 PWL A 701      25.165   2.017   3.580  0.00  0.00    +0.000 NA
ENDROOT
TORSDOF 0
ENDMDL
MODEL 7
REMARK VINA RESULT:      -5.3      2.380      4.701
REMARK  Name = ligand_pdbs\PWL.pdb
REMARK  0 active torsions:
REMARK  status: ('A' for Active; 'I' for Inactive)
REMARK                            x       y       z     vdW  Elec       q    Type
REMARK                         _______ _______ _______ _____ _____    ______ ____
ROOT
ATOM      1  C2  PWL A 701      26.510   4.618   4.422  0.00  0.00    +0.000 C 
ATOM      2  C3  PWL A 701      27.394   3.672   3.936  0.00  0.00    +0.000 C 
ATOM      3  C4  PWL A 701      26.897   2.427   3.564  0.00  0.00    +0.000 C 
ATOM      4  C6  PWL A 701      26.537   0.337   2.886  0.00  0.00    +0.000 C 
ATOM      5  C7  PWL A 701      25.323   0.811   3.230  0.00  0.00    +0.000 C 
ATOM      6  C8  PWL A 701      25.516   2.183   3.690  0.00  0.00    +0.000 C 
ATOM      7 BR1  PWL A 701      27.246   6.261   4.911  0.00  0.00    +0.000 Br
ATOM      8  N5  PWL A 701      27.486   1.297   3.075  0.00  0.00    +0.000 NA
ATOM      9  N9  PWL A 701      24.709   3.147   4.155  0.00  0.00    +0.000 NA
ATOM     10  C10 PWL A 701      25.138   4.344   4.535  0.00  0.00    +0.000 C 
ATOM     11  N11 PWL A 701      24.226   5.294   5.020  0.00  0.00    +0.000 NA
ENDROOT
TORSDOF 0
ENDMDL
MODEL 8
REMARK VINA RESULT:      -5.3      1.381      1.547
REMARK  Name = ligand_pdbs\PWL.pdb
REMARK  0 active torsions:
REMARK  status: ('A' for Active; 'I' for Inactive)
REMARK                            x       y       z     vdW  Elec       q    Type
REMARK                         _______ _______ _______ _____ _____    ______ ____
ROOT
ATOM      1  C2  PWL A 701      26.199   1.949   4.441  0.00  0.00    +0.000 C 
ATOM      2  C3  PWL A 701      25.005   2.602   4.691  0.00  0.00    +0.000 C 
ATOM      3  C4  PWL A 701      24.955   3.981   4.530  0.00  0.00    +0.000 C 
ATOM      4  C6  PWL A 701      24.447   6.147   4.418  0.00  0.00    +0.000 C 
ATOM      5  C7  PWL A 701      25.741   6.067   4.046  0.00  0.00    +0.000 C 
ATOM      6  C8  PWL A 701      26.117   4.659   4.113  0.00  0.00    +0.000 C 
ATOM      7 BR1  PWL A 701      26.197   0.100   4.688  0.00  0.00    +0.000 Br
ATOM      8  N5  PWL A 701      23.965   4.905   4.705  0.00  0.00    +0.000 NA
ATOM      9  N9  PWL A 701      27.240   3.967   3.872  0.00  0.00    +0.000 NA
ATOM     10  C10 PWL A 701      27.341   2.653   4.026  0.00  0.00    +0.000 C 
ATOM     11  N11 PWL A 701      28.558   2.007   3.762  0.00  0.00    +0.000 NA
ENDROOT
TORSDOF 0
ENDMDL
MODEL 9
REMARK VINA RESULT:      -5.3      3.093      5.188
REMARK  Name = ligand_pdbs\PWL.pdb
REMARK  0 active torsions:
REMARK  status: ('A' for Active; 'I' for Inactive)
REMARK                            x       y       z     vdW  Elec       q    Type
REMARK                         _______ _______ _______ _____ _____    ______ ____
ROOT
ATOM      1  C2  PWL A 701      27.355   3.082   4.176  0.00  0.00    +0.000 C 
ATOM      2  C3  PWL A 701      27.012   2.094   3.271  0.00  0.00    +0.000 C 
ATOM      3  C4  PWL A 701      27.027   0.770   3.694  0.00  0.00    +0.000 C 
ATOM      4  C6  PWL A 701      26.940  -1.442   3.940  0.00  0.00    +0.000 C 
ATOM      5  C7  PWL A 701      27.307  -0.966   5.147  0.00  0.00    +0.000 C 
ATOM      6  C8  PWL A 701      27.383   0.487   5.027  0.00  0.00    +0.000 C 
ATOM      7 BR1  PWL A 701      27.324   4.835   3.538  0.00  0.00    +0.000 Br
ATOM      8  N5  PWL A 701      26.764  -0.413   3.064  0.00  0.00    +0.000 NA
ATOM      9  N9  PWL A 701      27.692   1.491   5.860  0.00  0.00    +0.000 NA
ATOM     10  C10 PWL A 701      27.705   2.768   5.499  0.00  0.00    +0.000 C 
ATOM     11  N11 PWL A 701      28.050   3.757   6.432  0.00  0.00    +0.000 NA
ENDROOT
TORSDOF 0
ENDMDL
