MODEL 1
REMARK VINA RESULT:      -6.5      0.000      0.000
REMARK  Name = ligand_pdbs\PWX.pdb
REMARK  0 active torsions:
REMARK  status: ('A' for Active; 'I' for Inactive)
REMARK                            x       y       z     vdW  Elec       q    Type
REMARK                         _______ _______ _______ _____ _____    ______ ____
ROOT
ATOM      1  C1  PWX A 801      25.846   4.581   5.006  0.00  0.00    +0.000 C 
ATOM      2  N1  PWX A 801      26.141   3.203   5.195  0.00  0.00    +0.000 N 
ATOM      3  C12 PWX A 801      27.046   5.243   5.200  0.00  0.00    +0.000 C 
ATOM      4  C17 PWX A 801      24.803   6.716   4.592  0.00  0.00    +0.000 C 
ATOM      5  C16 PWX A 801      26.035   7.365   4.794  0.00  0.00    +0.000 C 
ATOM      6  C14 PWX A 801      25.197   2.076   5.096  0.00  0.00    +0.000 C 
ATOM      7  C13 PWX A 801      24.685   5.328   4.691  0.00  0.00    +0.000 C 
ATOM      8  C15 PWX A 801      27.174   6.630   5.101  0.00  0.00    +0.000 C 
ATOM      9  N   PWX A 801      28.003   4.290   5.491  0.00  0.00    +0.000 NA
ATOM     10  C   PWX A 801      27.434   3.107   5.478  0.00  0.00    +0.000 C 
ATOM     11  N12 PWX A 801      28.085   1.998   5.715  0.00  0.00    +0.000 NA
ATOM     12 CL   PWX A 801      23.124   4.628   4.424  0.00  0.00    +0.000 Cl
ENDROOT
TORSDOF 0
ENDMDL
MODEL 2
REMARK VINA RESULT:      -6.1      1.829      2.834
REMARK  Name = ligand_pdbs\PWX.pdb
REMARK  0 active torsions:
REMARK  status: ('A' for Active; 'I' for Inactive)
REMARK                            x       y       z     vdW  Elec       q    Type
REMARK                         _______ _______ _______ _____ _____    ______ ____
ROOT
ATOM      1  C1  PWX A 801      26.245   3.975   5.021  0.00  0.00    +0.000 C 
ATOM      2  N1  PWX A 801      27.281   3.026   5.242  0.00  0.00    +0.000 N 
ATOM      3  C12 PWX A 801      25.092   3.228   4.859  0.00  0.00    +0.000 C 
ATOM      4  C17 PWX A 801      24.927   5.969   4.701  0.00  0.00    +0.000 C 
ATOM      5  C16 PWX A 801      23.769   5.186   4.541  0.00  0.00    +0.000 C 
ATOM      6  C14 PWX A 801      28.707   3.313   5.474  0.00  0.00    +0.000 C 
ATOM      7  C13 PWX A 801      26.173   5.387   4.944  0.00  0.00    +0.000 C 
ATOM      8  C15 PWX A 801      23.842   3.801   4.619  0.00  0.00    +0.000 C 
ATOM      9  N   PWX A 801      25.440   1.896   4.980  0.00  0.00    +0.000 NA
ATOM     10  C   PWX A 801      26.731   1.818   5.204  0.00  0.00    +0.000 C 
ATOM     11  N12 PWX A 801      27.362   0.685   5.367  0.00  0.00    +0.000 NA
ATOM     12 CL   PWX A 801      27.536   6.439   5.127  0.00  0.00    +0.000 Cl
ENDROOT
TORSDOF 0
ENDMDL
MODEL 3
REMARK VINA RESULT:      -5.8      2.534      4.392
REMARK  Name = ligand_pdbs\PWX.pdb
REMARK  0 active torsions:
REMARK  status: ('A' for Active; 'I' for Inactive)
REMARK                            x       y       z     vdW  Elec       q    Type
REMARK                         _______ _______ _______ _____ _____    ______ ____
ROOT
ATOM      1  C1  PWX A 801      25.797   4.202   4.433  0.00  0.00    +0.000 C 
ATOM      2  N1  PWX A 801      26.208   5.532   4.723  0.00  0.00    +0.000 N 
ATOM      3  C12 PWX A 801      24.415   4.224   4.493  0.00  0.00    +0.000 C 
ATOM      4  C17 PWX A 801      25.678   1.852   3.902  0.00  0.00    +0.000 C 
ATOM      5  C16 PWX A 801      24.273   1.902   3.967  0.00  0.00    +0.000 C 
ATOM      6  C14 PWX A 801      27.591   6.035   4.783  0.00  0.00    +0.000 C 
ATOM      7  C13 PWX A 801      26.459   2.988   4.128  0.00  0.00    +0.000 C 
ATOM      8  C15 PWX A 801      23.626   3.095   4.264  0.00  0.00    +0.000 C 
ATOM      9  N   PWX A 801      24.034   5.515   4.804  0.00  0.00    +0.000 NA
ATOM     10  C   PWX A 801      25.112   6.252   4.931  0.00  0.00    +0.000 C 
ATOM     11  N12 PWX A 801      25.078   7.526   5.223  0.00  0.00    +0.000 NA
ATOM     12 CL   PWX A 801      28.179   2.820   4.023  0.00  0.00    +0.000 Cl
ENDROOT
TORSDOF 0
ENDMDL
MODEL 4
REMARK VINA RESULT:      -5.8      2.766      4.704
REMARK  Name = ligand_pdbs\PWX.pdb
REMARK  0 active torsions:
REMARK  status: ('A' for Active; 'I' for Inactive)
REMARK                            x       y       z     vdW  Elec       q    Type
REMARK                         _______ _______ _______ _____ _____    ______ ____
ROOT
ATOM      1  C1  PWX A 801      27.533   1.818   5.644  0.00  0.00    +0.000 C 
ATOM      2  N1  PWX A 801      26.408   2.652   5.398  0.00  0.00    +0.000 N 
ATOM      3  C12 PWX A 801      28.552   2.677   6.017  0.00  0.00    +0.000 C 
ATOM      4  C17 PWX A 801      29.067  -0.024   5.912  0.00  0.00    +0.000 C 
ATOM      5  C16 PWX A 801      30.086   0.871   6.290  0.00  0.00    +0.000 C 
ATOM      6  C14 PWX A 801      25.065   2.221   4.972  0.00  0.00    +0.000 C 
ATOM      7  C13 PWX A 801      27.785   0.426   5.588  0.00  0.00    +0.000 C 
ATOM      8  C15 PWX A 801      29.835   2.237   6.346  0.00  0.00    +0.000 C 
ATOM      9  N   PWX A 801      28.043   3.961   5.989  0.00  0.00    +0.000 NA
ATOM     10  C   PWX A 801      26.784   3.906   5.622  0.00  0.00    +0.000 C 
ATOM     11  N12 PWX A 801      26.026   4.964   5.504  0.00  0.00    +0.000 NA
ATOM     12 CL   PWX A 801      26.603  -0.757   5.137  0.00  0.00    +0.000 Cl
ENDROOT
TORSDOF 0
ENDMDL
MODEL 5
REMARK VINA RESULT:      -5.7      3.860      4.745
REMARK  Name = ligand_pdbs\PWX.pdb
REMARK  0 active torsions:
REMARK  status: ('A' for Active; 'I' for Inactive)
REMARK                            x       y       z     vdW  Elec       q    Type
REMARK                         _______ _______ _______ _____ _____    ______ ____
ROOT
ATOM      1  C1  PWX A 801      27.595   0.911   4.756  0.00  0.00    +0.000 C 
ATOM      2  N1  PWX A 801      28.741   1.076   5.582  0.00  0.00    +0.000 N 
ATOM      3  C12 PWX A 801      27.443   2.117   4.095  0.00  0.00    +0.000 C 
ATOM      4  C17 PWX A 801      25.644   0.096   3.596  0.00  0.00    +0.000 C 
ATOM      5  C16 PWX A 801      25.513   1.331   2.935  0.00  0.00    +0.000 C 
ATOM      6  C14 PWX A 801      29.326   0.074   6.490  0.00  0.00    +0.000 C 
ATOM      7  C13 PWX A 801      26.677  -0.137   4.507  0.00  0.00    +0.000 C 
ATOM      8  C15 PWX A 801      26.416   2.359   3.181  0.00  0.00    +0.000 C 
ATOM      9  N   PWX A 801      28.460   2.952   4.517  0.00  0.00    +0.000 NA
ATOM     10  C   PWX A 801      29.200   2.306   5.388  0.00  0.00    +0.000 C 
ATOM     11  N12 PWX A 801      30.245   2.833   5.969  0.00  0.00    +0.000 NA
ATOM     12 CL   PWX A 801      26.750  -1.693   5.265  0.00  0.00    +0.000 Cl
ENDROOT
TORSDOF 0
ENDMDL
MODEL 6
REMARK VINA RESULT:      -5.7      3.428      4.595
REMARK  Name = ligand_pdbs\PWX.pdb
REMARK  0 active torsions:
REMARK  status: ('A' for Active; 'I' for Inactive)
REMARK                            x       y       z     vdW  Elec       q    Type
REMARK                         _______ _______ _______ _____ _____    ______ ____
ROOT
ATOM      1  C1  PWX A 801      27.610   1.676   4.541  0.00  0.00    +0.000 C 
ATOM      2  N1  PWX A 801      28.678   1.648   5.480  0.00  0.00    +0.000 N 
ATOM      3  C12 PWX A 801      27.070   0.402   4.562  0.00  0.00    +0.000 C 
ATOM      4  C17 PWX A 801      25.969   2.281   2.880  0.00  0.00    +0.000 C 
ATOM      5  C16 PWX A 801      25.438   0.978   2.921  0.00  0.00    +0.000 C 
ATOM      6  C14 PWX A 801      29.574   2.763   5.831  0.00  0.00    +0.000 C 
ATOM      7  C13 PWX A 801      27.051   2.652   3.682  0.00  0.00    +0.000 C 
ATOM      8  C15 PWX A 801      25.988   0.022   3.767  0.00  0.00    +0.000 C 
ATOM      9  N   PWX A 801      27.795  -0.340   5.475  0.00  0.00    +0.000 NA
ATOM     10  C   PWX A 801      28.728   0.424   5.993  0.00  0.00    +0.000 C 
ATOM     11  N12 PWX A 801      29.577   0.006   6.893  0.00  0.00    +0.000 NA
ATOM     12 CL   PWX A 801      27.629   4.280   3.557  0.00  0.00    +0.000 Cl
ENDROOT
TORSDOF 0
ENDMDL
MODEL 7
REMARK VINA RESULT:      -5.7      1.783      3.639
REMARK  Name = ligand_pdbs\PWX.pdb
REMARK  0 active torsions:
REMARK  status: ('A' for Active; 'I' for Inactive)
REMARK                            x       y       z     vdW  Elec       q    Type
REMARK                         _______ _______ _______ _____ _____    ______ ____
ROOT
ATOM      1  C1  PWX A 801      26.126   3.774   4.234  0.00  0.00    +0.000 C 
ATOM      2  N1  PWX A 801      25.903   5.109   4.670  0.00  0.00    +0.000 N 
ATOM      3  C12 PWX A 801      27.496   3.663   4.075  0.00  0.00    +0.000 C 
ATOM      4  C17 PWX A 801      25.918   1.476   3.532  0.00  0.00    +0.000 C 
ATOM      5  C16 PWX A 801      27.314   1.389   3.380  0.00  0.00    +0.000 C 
ATOM      6  C14 PWX A 801      24.605   5.731   4.984  0.00  0.00    +0.000 C 
ATOM      7  C13 PWX A 801      25.303   2.655   3.959  0.00  0.00    +0.000 C 
ATOM      8  C15 PWX A 801      28.120   2.489   3.651  0.00  0.00    +0.000 C 
ATOM      9  N   PWX A 801      28.051   4.885   4.405  0.00  0.00    +0.000 NA
ATOM     10  C   PWX A 801      27.086   5.706   4.749  0.00  0.00    +0.000 C 
ATOM     11  N12 PWX A 801      27.296   6.942   5.118  0.00  0.00    +0.000 NA
ATOM     12 CL   PWX A 801      23.578   2.656   4.116  0.00  0.00    +0.000 Cl
ENDROOT
TORSDOF 0
ENDMDL
MODEL 8
REMARK VINA RESULT:      -5.7      2.598      3.863
REMARK  Name = ligand_pdbs\PWX.pdb
REMARK  0 active torsions:
REMARK  status: ('A' for Active; 'I' for Inactive)
REMARK                            x       y       z     vdW  Elec       q    Type
REMARK                         _______ _______ _______ _____ _____    ______ ____
ROOT
ATOM      1  C1  PWX A 801      26.746   2.308   4.710  0.00  0.00    +0.000 C 
ATOM      2  N1  PWX A 801      27.939   2.679   5.390  0.00  0.00    +0.000 N 
ATOM      3  C12 PWX A 801      27.139   1.391   3.752  0.00  0.00    +0.000 C 
ATOM      4  C17 PWX A 801      24.477   2.060   3.931  0.00  0.00    +0.000 C 
ATOM      5  C16 PWX A 801      24.903   1.129   2.966  0.00  0.00    +0.000 C 
ATOM      6  C14 PWX A 801      28.059   3.634   6.505  0.00  0.00    +0.000 C 
ATOM      7  C13 PWX A 801      25.378   2.659   4.814  0.00  0.00    +0.000 C 
ATOM      8  C15 PWX A 801      26.246   0.784   2.868  0.00  0.00    +0.000 C 
ATOM      9  N   PWX A 801      28.507   1.232   3.868  0.00  0.00    +0.000 NA
ATOM     10  C   PWX A 801      28.939   2.003   4.839  0.00  0.00    +0.000 C 
ATOM     11  N12 PWX A 801      30.195   2.071   5.193  0.00  0.00    +0.000 NA
ATOM     12 CL   PWX A 801      24.751   3.792   5.965  0.00  0.00    +0.000 Cl
ENDROOT
TORSDOF 0
ENDMDL
MODEL 9
REMARK VINA RESULT:      -5.6      2.447      3.019
REMARK  Name = ligand_pdbs\PWX.pdb
REMARK  0 active torsions:
REMARK  status: ('A' for Active; 'I' for Inactive)
REMARK                            x       y       z     vdW  Elec       q    Type
REMARK                         _______ _______ _______ _____ _____    ______ ____
ROOT
ATOM      1  C1  PWX A 801      27.245   1.956   4.636  0.00  0.00    +0.000 C 
ATOM      2  N1  PWX A 801      27.616   0.722   5.239  0.00  0.00    +0.000 N 
ATOM      3  C12 PWX A 801      28.180   2.876   5.076  0.00  0.00    +0.000 C 
ATOM      4  C17 PWX A 801      26.181   3.723   3.386  0.00  0.00    +0.000 C 
ATOM      5  C16 PWX A 801      27.146   4.638   3.847  0.00  0.00    +0.000 C 
ATOM      6  C14 PWX A 801      26.937  -0.576   5.086  0.00  0.00    +0.000 C 
ATOM      7  C13 PWX A 801      26.213   2.379   3.764  0.00  0.00    +0.000 C 
ATOM      8  C15 PWX A 801      28.159   4.220   4.701  0.00  0.00    +0.000 C 
ATOM      9  N   PWX A 801      29.062   2.206   5.903  0.00  0.00    +0.000 NA
ATOM     10  C   PWX A 801      28.699   0.947   5.973  0.00  0.00    +0.000 C 
ATOM     11  N12 PWX A 801      29.342   0.056   6.681  0.00  0.00    +0.000 NA
ATOM     12 CL   PWX A 801      24.980   1.334   3.140  0.00  0.00    +0.000 Cl
ENDROOT
TORSDOF 0
ENDMDL
