MODEL 1
REMARK VINA RESULT:      -8.2      0.000      0.000
REMARK  Name = ligand_pdbs\QKY.pdb
REMARK  4 active torsions:
REMARK  status: ('A' for Active; 'I' for Inactive)
REMARK    1  A    between atoms: C10_7  and  C9_19
REMARK    2  A    between atoms: C10_7  and  C11_22
REMARK    3  A    between atoms: C1_16  and  C3_18
REMARK    4  A    between atoms: C1_16  and  C9_19
REMARK                            x       y       z     vdW  Elec       q    Type
REMARK                         _______ _______ _______ _____ _____    ______ ____
ROOT
ATOM      1  N1  QKY A 701      25.627   3.185   4.932  0.00  0.00    +0.000 NA
ATOM      2  C17 QKY A 701      25.349   6.637   3.746  0.00  0.00    +0.000 C 
ATOM      3  O   QKY A 701      27.595   5.082   2.745  0.00  0.00    +0.000 OA
ATOM      4  C   QKY A 701      26.787   4.598   3.512  0.00  0.00    +0.000 C 
ATOM      5  N2  QKY A 701      23.959   4.837   5.582  0.00  0.00    +0.000 NA
ATOM      6  N   QKY A 701      25.696   5.240   4.043  0.00  0.00    +0.000 N 
ATOM      7  C1  QKY A 701      26.777   3.135   4.032  0.00  0.00    +0.000 C 
ATOM      8  C2  QKY A 701      25.017   4.400   4.924  0.00  0.00    +0.000 C 
ENDROOT
BRANCH   7  14
ATOM      9  C4  QKY A 701      29.019   1.903   4.204  0.00  0.00    +0.000 A 
ATOM     10  C5  QKY A 701      30.117   1.462   4.935  0.00  0.00    +0.000 A 
ATOM     11  C6  QKY A 701      30.302   1.885   6.237  0.00  0.00    +0.000 A 
ATOM     12  C7  QKY A 701      29.394   2.756   6.812  0.00  0.00    +0.000 A 
ATOM     13  C8  QKY A 701      28.296   3.204   6.084  0.00  0.00    +0.000 A 
ATOM     14  C3  QKY A 701      28.083   2.773   4.772  0.00  0.00    +0.000 A 
ENDBRANCH   7  14
BRANCH   7  15
ATOM     15  C9  QKY A 701      26.540   2.212   2.817  0.00  0.00    +0.000 C 
BRANCH  15  16
ATOM     16  C10 QKY A 701      25.513   1.088   2.992  0.00  0.00    +0.000 C 
BRANCH  16  22
ATOM     17  C13 QKY A 701      28.150  -1.794   2.956  0.00  0.00    +0.000 C 
ATOM     18  C15 QKY A 701      27.006  -1.766   5.207  0.00  0.00    +0.000 C 
ATOM     19  C16 QKY A 701      26.369  -0.418   4.854  0.00  0.00    +0.000 C 
ATOM     20  C14 QKY A 701      28.334  -1.968   4.467  0.00  0.00    +0.000 C 
ATOM     21  C12 QKY A 701      27.499  -0.444   2.623  0.00  0.00    +0.000 C 
ATOM     22  C11 QKY A 701      26.162  -0.251   3.342  0.00  0.00    +0.000 C 
ENDBRANCH  16  22
ENDBRANCH  15  16
ENDBRANCH   7  15
TORSDOF 4
ENDMDL
MODEL 2
REMARK VINA RESULT:      -7.6      1.925      4.065
REMARK  Name = ligand_pdbs\QKY.pdb
REMARK  4 active torsions:
REMARK  status: ('A' for Active; 'I' for Inactive)
REMARK    1  A    between atoms: C10_7  and  C9_19
REMARK    2  A    between atoms: C10_7  and  C11_22
REMARK    3  A    between atoms: C1_16  and  C3_18
REMARK    4  A    between atoms: C1_16  and  C9_19
REMARK                            x       y       z     vdW  Elec       q    Type
REMARK                         _______ _______ _______ _____ _____    ______ ____
ROOT
ATOM      1  N1  QKY A 701      27.689   2.661   3.790  0.00  0.00    +0.000 NA
ATOM      2  C17 QKY A 701      29.617   1.730   6.758  0.00  0.00    +0.000 C 
ATOM      3  O   QKY A 701      27.056   3.033   7.213  0.00  0.00    +0.000 OA
ATOM      4  C   QKY A 701      27.455   2.803   6.088  0.00  0.00    +0.000 C 
ATOM      5  N2  QKY A 701      29.898   1.636   3.851  0.00  0.00    +0.000 NA
ATOM      6  N   QKY A 701      28.642   2.197   5.763  0.00  0.00    +0.000 N 
ATOM      7  C1  QKY A 701      26.696   3.102   4.766  0.00  0.00    +0.000 C 
ATOM      8  C2  QKY A 701      28.798   2.141   4.379  0.00  0.00    +0.000 C 
ENDROOT
BRANCH   7  14
ATOM      9  C4  QKY A 701      27.292   5.591   4.942  0.00  0.00    +0.000 A 
ATOM     10  C5  QKY A 701      26.933   6.934   4.951  0.00  0.00    +0.000 A 
ATOM     11  C6  QKY A 701      25.642   7.313   4.633  0.00  0.00    +0.000 A 
ATOM     12  C7  QKY A 701      24.708   6.349   4.298  0.00  0.00    +0.000 A 
ATOM     13  C8  QKY A 701      25.062   5.004   4.282  0.00  0.00    +0.000 A 
ATOM     14  C3  QKY A 701      26.357   4.602   4.618  0.00  0.00    +0.000 A 
ENDBRANCH   7  14
BRANCH   7  15
ATOM     15  C9  QKY A 701      25.422   2.230   4.754  0.00  0.00    +0.000 C 
BRANCH  15  16
ATOM     16  C10 QKY A 701      25.196   1.354   3.517  0.00  0.00    +0.000 C 
BRANCH  16  22
ATOM     17  C13 QKY A 701      27.649  -1.610   2.847  0.00  0.00    +0.000 C 
ATOM     18  C15 QKY A 701      26.863  -1.731   5.243  0.00  0.00    +0.000 C 
ATOM     19  C16 QKY A 701      26.248  -0.334   5.100  0.00  0.00    +0.000 C 
ATOM     20  C14 QKY A 701      28.052  -1.918   4.293  0.00  0.00    +0.000 C 
ATOM     21  C12 QKY A 701      27.024  -0.214   2.726  0.00  0.00    +0.000 C 
ATOM     22  C11 QKY A 701      25.823  -0.033   3.657  0.00  0.00    +0.000 C 
ENDBRANCH  16  22
ENDBRANCH  15  16
ENDBRANCH   7  15
TORSDOF 4
ENDMDL
MODEL 3
REMARK VINA RESULT:      -7.5      2.483      6.010
REMARK  Name = ligand_pdbs\QKY.pdb
REMARK  4 active torsions:
REMARK  status: ('A' for Active; 'I' for Inactive)
REMARK    1  A    between atoms: C10_7  and  C9_19
REMARK    2  A    between atoms: C10_7  and  C11_22
REMARK    3  A    between atoms: C1_16  and  C3_18
REMARK    4  A    between atoms: C1_16  and  C9_19
REMARK                            x       y       z     vdW  Elec       q    Type
REMARK                         _______ _______ _______ _____ _____    ______ ____
ROOT
ATOM      1  N1  QKY A 701      28.269   1.785   6.217  0.00  0.00    +0.000 NA
ATOM      2  C17 QKY A 701      29.306  -1.165   4.314  0.00  0.00    +0.000 C 
ATOM      3  O   QKY A 701      27.743   0.833   2.889  0.00  0.00    +0.000 OA
ATOM      4  C   QKY A 701      28.042   0.983   4.057  0.00  0.00    +0.000 C 
ATOM      5  N2  QKY A 701      29.506  -0.143   7.045  0.00  0.00    +0.000 NA
ATOM      6  N   QKY A 701      28.771   0.107   4.821  0.00  0.00    +0.000 N 
ATOM      7  C1  QKY A 701      27.704   2.215   4.940  0.00  0.00    +0.000 C 
ATOM      8  C2  QKY A 701      28.879   0.574   6.130  0.00  0.00    +0.000 C 
ENDROOT
BRANCH   7  14
ATOM      9  C4  QKY A 701      25.314   2.006   4.034  0.00  0.00    +0.000 A 
ATOM     10  C5  QKY A 701      23.971   2.365   4.040  0.00  0.00    +0.000 A 
ATOM     11  C6  QKY A 701      23.472   3.181   5.038  0.00  0.00    +0.000 A 
ATOM     12  C7  QKY A 701      24.314   3.636   6.037  0.00  0.00    +0.000 A 
ATOM     13  C8  QKY A 701      25.658   3.278   6.039  0.00  0.00    +0.000 A 
ATOM     14  C3  QKY A 701      26.183   2.468   5.028  0.00  0.00    +0.000 A 
ENDBRANCH   7  14
BRANCH   7  15
ATOM     15  C9  QKY A 701      28.446   3.431   4.343  0.00  0.00    +0.000 C 
BRANCH  15  16
ATOM     16  C10 QKY A 701      27.761   4.156   3.179  0.00  0.00    +0.000 C 
BRANCH  16  22
ATOM     17  C13 QKY A 701      25.220   7.067   3.742  0.00  0.00    +0.000 C 
ATOM     18  C15 QKY A 701      27.105   7.300   5.405  0.00  0.00    +0.000 C 
ATOM     19  C16 QKY A 701      27.604   5.904   5.018  0.00  0.00    +0.000 C 
ATOM     20  C14 QKY A 701      25.595   7.436   5.181  0.00  0.00    +0.000 C 
ATOM     21  C12 QKY A 701      25.739   5.672   3.369  0.00  0.00    +0.000 C 
ATOM     22  C11 QKY A 701      27.250   5.542   3.569  0.00  0.00    +0.000 C 
ENDBRANCH  16  22
ENDBRANCH  15  16
ENDBRANCH   7  15
TORSDOF 4
ENDMDL
MODEL 4
REMARK VINA RESULT:      -7.3      2.030      4.990
REMARK  Name = ligand_pdbs\QKY.pdb
REMARK  4 active torsions:
REMARK  status: ('A' for Active; 'I' for Inactive)
REMARK    1  A    between atoms: C10_7  and  C9_19
REMARK    2  A    between atoms: C10_7  and  C11_22
REMARK    3  A    between atoms: C1_16  and  C3_18
REMARK    4  A    between atoms: C1_16  and  C9_19
REMARK                            x       y       z     vdW  Elec       q    Type
REMARK                         _______ _______ _______ _____ _____    ______ ____
ROOT
ATOM      1  N1  QKY A 701      25.499   2.174   3.733  0.00  0.00    +0.000 NA
ATOM      2  C17 QKY A 701      24.650   3.583   7.003  0.00  0.00    +0.000 C 
ATOM      3  O   QKY A 701      27.383   2.650   6.645  0.00  0.00    +0.000 OA
ATOM      4  C   QKY A 701      26.571   2.581   5.744  0.00  0.00    +0.000 C 
ATOM      5  N2  QKY A 701      23.323   2.985   4.468  0.00  0.00    +0.000 NA
ATOM      6  N   QKY A 701      25.262   2.989   5.805  0.00  0.00    +0.000 N 
ATOM      7  C1  QKY A 701      26.838   2.056   4.306  0.00  0.00    +0.000 C 
ATOM      8  C2  QKY A 701      24.608   2.713   4.606  0.00  0.00    +0.000 C 
ENDROOT
BRANCH   7  14
ATOM      9  C4  QKY A 701      28.483   0.231   3.575  0.00  0.00    +0.000 A 
ATOM     10  C5  QKY A 701      28.850  -1.105   3.455  0.00  0.00    +0.000 A 
ATOM     11  C6  QKY A 701      28.098  -2.092   4.065  0.00  0.00    +0.000 A 
ATOM     12  C7  QKY A 701      26.980  -1.745   4.803  0.00  0.00    +0.000 A 
ATOM     13  C8  QKY A 701      26.610  -0.410   4.929  0.00  0.00    +0.000 A 
ATOM     14  C3  QKY A 701      27.349   0.599   4.305  0.00  0.00    +0.000 A 
ENDBRANCH   7  14
BRANCH   7  15
ATOM     15  C9  QKY A 701      27.853   3.013   3.644  0.00  0.00    +0.000 C 
BRANCH  15  16
ATOM     16  C10 QKY A 701      27.292   4.038   2.653  0.00  0.00    +0.000 C 
BRANCH  16  22
ATOM     17  C13 QKY A 701      25.416   7.174   4.030  0.00  0.00    +0.000 C 
ATOM     18  C15 QKY A 701      27.597   6.919   5.275  0.00  0.00    +0.000 C 
ATOM     19  C16 QKY A 701      27.778   5.531   4.652  0.00  0.00    +0.000 C 
ATOM     20  C14 QKY A 701      26.115   7.292   5.388  0.00  0.00    +0.000 C 
ATOM     21  C12 QKY A 701      25.619   5.782   3.416  0.00  0.00    +0.000 C 
ATOM     22  C11 QKY A 701      27.099   5.417   3.280  0.00  0.00    +0.000 C 
ENDBRANCH  16  22
ENDBRANCH  15  16
ENDBRANCH   7  15
TORSDOF 4
ENDMDL
MODEL 5
REMARK VINA RESULT:      -7.0      2.198      5.136
REMARK  Name = ligand_pdbs\QKY.pdb
REMARK  4 active torsions:
REMARK  status: ('A' for Active; 'I' for Inactive)
REMARK    1  A    between atoms: C10_7  and  C9_19
REMARK    2  A    between atoms: C10_7  and  C11_22
REMARK    3  A    between atoms: C1_16  and  C3_18
REMARK    4  A    between atoms: C1_16  and  C9_19
REMARK                            x       y       z     vdW  Elec       q    Type
REMARK                         _______ _______ _______ _____ _____    ______ ____
ROOT
ATOM      1  N1  QKY A 701      27.460   2.040   3.205  0.00  0.00    +0.000 NA
ATOM      2  C17 QKY A 701      24.033   2.035   4.492  0.00  0.00    +0.000 C 
ATOM      3  O   QKY A 701      26.110   2.985   6.294  0.00  0.00    +0.000 OA
ATOM      4  C   QKY A 701      26.375   2.619   5.166  0.00  0.00    +0.000 C 
ATOM      5  N2  QKY A 701      25.458   1.253   2.062  0.00  0.00    +0.000 NA
ATOM      6  N   QKY A 701      25.476   2.154   4.239  0.00  0.00    +0.000 N 
ATOM      7  C1  QKY A 701      27.778   2.633   4.502  0.00  0.00    +0.000 C 
ATOM      8  C2  QKY A 701      26.134   1.774   3.070  0.00  0.00    +0.000 C 
ENDROOT
BRANCH   7  14
ATOM      9  C4  QKY A 701      28.435   0.588   5.903  0.00  0.00    +0.000 A 
ATOM     10  C5  QKY A 701      29.319  -0.087   6.738  0.00  0.00    +0.000 A 
ATOM     11  C6  QKY A 701      30.583   0.422   6.972  0.00  0.00    +0.000 A 
ATOM     12  C7  QKY A 701      30.970   1.604   6.366  0.00  0.00    +0.000 A 
ATOM     13  C8  QKY A 701      30.091   2.282   5.527  0.00  0.00    +0.000 A 
ATOM     14  C3  QKY A 701      28.804   1.791   5.293  0.00  0.00    +0.000 A 
ENDBRANCH   7  14
BRANCH   7  15
ATOM     15  C9  QKY A 701      28.223   4.107   4.387  0.00  0.00    +0.000 C 
BRANCH  15  16
ATOM     16  C10 QKY A 701      27.677   4.904   3.198  0.00  0.00    +0.000 C 
BRANCH  16  22
ATOM     17  C13 QKY A 701      24.431   6.833   4.194  0.00  0.00    +0.000 C 
ATOM     18  C15 QKY A 701      26.399   7.892   5.368  0.00  0.00    +0.000 C 
ATOM     19  C16 QKY A 701      27.275   6.710   4.941  0.00  0.00    +0.000 C 
ATOM     20  C14 QKY A 701      24.927   7.481   5.490  0.00  0.00    +0.000 C 
ATOM     21  C12 QKY A 701      25.328   5.660   3.777  0.00  0.00    +0.000 C 
ATOM     22  C11 QKY A 701      26.794   6.073   3.631  0.00  0.00    +0.000 C 
ENDBRANCH  16  22
ENDBRANCH  15  16
ENDBRANCH   7  15
TORSDOF 4
ENDMDL
MODEL 6
REMARK VINA RESULT:      -7.0      1.718      5.232
REMARK  Name = ligand_pdbs\QKY.pdb
REMARK  4 active torsions:
REMARK  status: ('A' for Active; 'I' for Inactive)
REMARK    1  A    between atoms: C10_7  and  C9_19
REMARK    2  A    between atoms: C10_7  and  C11_22
REMARK    3  A    between atoms: C1_16  and  C3_18
REMARK    4  A    between atoms: C1_16  and  C9_19
REMARK                            x       y       z     vdW  Elec       q    Type
REMARK                         _______ _______ _______ _____ _____    ______ ____
ROOT
ATOM      1  N1  QKY A 701      26.116   2.365   5.578  0.00  0.00    +0.000 NA
ATOM      2  C17 QKY A 701      29.087   3.735   7.221  0.00  0.00    +0.000 C 
ATOM      3  O   QKY A 701      29.497   2.399   4.669  0.00  0.00    +0.000 OA
ATOM      4  C   QKY A 701      28.388   2.502   5.155  0.00  0.00    +0.000 C 
ATOM      5  N2  QKY A 701      26.223   3.476   7.743  0.00  0.00    +0.000 NA
ATOM      6  N   QKY A 701      28.084   3.109   6.347  0.00  0.00    +0.000 N 
ATOM      7  C1  QKY A 701      27.059   2.010   4.520  0.00  0.00    +0.000 C 
ATOM      8  C2  QKY A 701      26.721   2.998   6.618  0.00  0.00    +0.000 C 
ENDROOT
BRANCH   7  14
ATOM      9  C4  QKY A 701      26.689  -0.430   5.216  0.00  0.00    +0.000 A 
ATOM     10  C5  QKY A 701      26.850  -1.796   5.011  0.00  0.00    +0.000 A 
ATOM     11  C6  QKY A 701      27.392  -2.264   3.828  0.00  0.00    +0.000 A 
ATOM     12  C7  QKY A 701      27.768  -1.367   2.844  0.00  0.00    +0.000 A 
ATOM     13  C8  QKY A 701      27.606   0.000   3.042  0.00  0.00    +0.000 A 
ATOM     14  C3  QKY A 701      27.076   0.491   4.238  0.00  0.00    +0.000 A 
ENDBRANCH   7  14
BRANCH   7  15
ATOM     15  C9  QKY A 701      26.833   2.823   3.227  0.00  0.00    +0.000 C 
BRANCH  15  16
ATOM     16  C10 QKY A 701      27.626   4.126   3.082  0.00  0.00    +0.000 C 
BRANCH  16  22
ATOM     17  C13 QKY A 701      24.531   6.233   4.194  0.00  0.00    +0.000 C 
ATOM     18  C15 QKY A 701      26.626   7.353   5.047  0.00  0.00    +0.000 C 
ATOM     19  C16 QKY A 701      27.435   6.111   4.659  0.00  0.00    +0.000 C 
ATOM     20  C14 QKY A 701      25.168   6.997   5.359  0.00  0.00    +0.000 C 
ATOM     21  C12 QKY A 701      25.361   5.000   3.813  0.00  0.00    +0.000 C 
ATOM     22  C11 QKY A 701      26.811   5.357   3.477  0.00  0.00    +0.000 C 
ENDBRANCH  16  22
ENDBRANCH  15  16
ENDBRANCH   7  15
TORSDOF 4
ENDMDL
MODEL 7
REMARK VINA RESULT:      -6.9      2.923      5.454
REMARK  Name = ligand_pdbs\QKY.pdb
REMARK  4 active torsions:
REMARK  status: ('A' for Active; 'I' for Inactive)
REMARK    1  A    between atoms: C10_7  and  C9_19
REMARK    2  A    between atoms: C10_7  and  C11_22
REMARK    3  A    between atoms: C1_16  and  C3_18
REMARK    4  A    between atoms: C1_16  and  C9_19
REMARK                            x       y       z     vdW  Elec       q    Type
REMARK                         _______ _______ _______ _____ _____    ______ ____
ROOT
ATOM      1  N1  QKY A 701      29.122  -0.388   3.604  0.00  0.00    +0.000 NA
ATOM      2  C17 QKY A 701      26.877  -3.055   4.718  0.00  0.00    +0.000 C 
ATOM      3  O   QKY A 701      25.985  -0.321   5.157  0.00  0.00    +0.000 OA
ATOM      4  C   QKY A 701      27.049  -0.558   4.620  0.00  0.00    +0.000 C 
ATOM      5  N2  QKY A 701      29.521  -2.788   3.501  0.00  0.00    +0.000 NA
ATOM      6  N   QKY A 701      27.564  -1.804   4.366  0.00  0.00    +0.000 N 
ATOM      7  C1  QKY A 701      28.048   0.492   4.060  0.00  0.00    +0.000 C 
ATOM      8  C2  QKY A 701      28.826  -1.702   3.785  0.00  0.00    +0.000 C 
ENDROOT
BRANCH   7  14
ATOM      9  C4  QKY A 701      27.613   2.091   6.016  0.00  0.00    +0.000 A 
ATOM     10  C5  QKY A 701      28.026   3.091   6.890  0.00  0.00    +0.000 A 
ATOM     11  C6  QKY A 701      29.348   3.491   6.917  0.00  0.00    +0.000 A 
ATOM     12  C7  QKY A 701      30.265   2.888   6.075  0.00  0.00    +0.000 A 
ATOM     13  C8  QKY A 701      29.859   1.885   5.201  0.00  0.00    +0.000 A 
ATOM     14  C3  QKY A 701      28.523   1.480   5.148  0.00  0.00    +0.000 A 
ENDBRANCH   7  14
BRANCH   7  15
ATOM     15  C9  QKY A 701      27.347   1.225   2.896  0.00  0.00    +0.000 C 
BRANCH  15  16
ATOM     16  C10 QKY A 701      25.828   1.397   3.001  0.00  0.00    +0.000 C 
BRANCH  16  22
ATOM     17  C13 QKY A 701      24.183   4.413   4.859  0.00  0.00    +0.000 C 
ATOM     18  C15 QKY A 701      26.217   5.238   3.613  0.00  0.00    +0.000 C 
ATOM     19  C16 QKY A 701      26.628   3.786   3.345  0.00  0.00    +0.000 C 
ATOM     20  C14 QKY A 701      25.389   5.357   4.897  0.00  0.00    +0.000 C 
ATOM     21  C12 QKY A 701      24.612   2.967   4.578  0.00  0.00    +0.000 C 
ATOM     22  C11 QKY A 701      25.419   2.842   3.283  0.00  0.00    +0.000 C 
ENDBRANCH  16  22
ENDBRANCH  15  16
ENDBRANCH   7  15
TORSDOF 4
ENDMDL
MODEL 8
REMARK VINA RESULT:      -6.4      2.603      5.846
REMARK  Name = ligand_pdbs\QKY.pdb
REMARK  4 active torsions:
REMARK  status: ('A' for Active; 'I' for Inactive)
REMARK    1  A    between atoms: C10_7  and  C9_19
REMARK    2  A    between atoms: C10_7  and  C11_22
REMARK    3  A    between atoms: C1_16  and  C3_18
REMARK    4  A    between atoms: C1_16  and  C9_19
REMARK                            x       y       z     vdW  Elec       q    Type
REMARK                         _______ _______ _______ _____ _____    ______ ____
ROOT
ATOM      1  N1  QKY A 701      28.101   0.961   6.499  0.00  0.00    +0.000 NA
ATOM      2  C17 QKY A 701      31.391   2.413   5.814  0.00  0.00    +0.000 C 
ATOM      3  O   QKY A 701      29.087   3.805   4.709  0.00  0.00    +0.000 OA
ATOM      4  C   QKY A 701      28.954   2.796   5.374  0.00  0.00    +0.000 C 
ATOM      5  N2  QKY A 701      30.270   0.074   7.162  0.00  0.00    +0.000 NA
ATOM      6  N   QKY A 701      29.968   2.064   5.938  0.00  0.00    +0.000 N 
ATOM      7  C1  QKY A 701      27.609   2.129   5.771  0.00  0.00    +0.000 C 
ATOM      8  C2  QKY A 701      29.457   0.942   6.587  0.00  0.00    +0.000 C 
ENDROOT
BRANCH   7  14
ATOM      9  C4  QKY A 701      26.783   2.514   3.374  0.00  0.00    +0.000 A 
ATOM     10  C5  QKY A 701      25.912   2.243   2.325  0.00  0.00    +0.000 A 
ATOM     11  C6  QKY A 701      25.020   1.191   2.414  0.00  0.00    +0.000 A 
ATOM     12  C7  QKY A 701      25.000   0.402   3.550  0.00  0.00    +0.000 A 
ATOM     13  C8  QKY A 701      25.871   0.667   4.602  0.00  0.00    +0.000 A 
ATOM     14  C3  QKY A 701      26.768   1.736   4.536  0.00  0.00    +0.000 A 
ENDBRANCH   7  14
BRANCH   7  15
ATOM     15  C9  QKY A 701      26.850   3.119   6.681  0.00  0.00    +0.000 C 
BRANCH  15  16
ATOM     16  C10 QKY A 701      25.407   3.452   6.290  0.00  0.00    +0.000 C 
BRANCH  16  22
ATOM     17  C13 QKY A 701      26.437   7.015   5.068  0.00  0.00    +0.000 C 
ATOM     18  C15 QKY A 701      24.166   6.455   4.119  0.00  0.00    +0.000 C 
ATOM     19  C16 QKY A 701      24.342   5.005   4.582  0.00  0.00    +0.000 C 
ATOM     20  C14 QKY A 701      25.519   7.124   3.847  0.00  0.00    +0.000 C 
ATOM     21  C12 QKY A 701      26.592   5.558   5.524  0.00  0.00    +0.000 C 
ATOM     22  C11 QKY A 701      25.244   4.896   5.819  0.00  0.00    +0.000 C 
ENDBRANCH  16  22
ENDBRANCH  15  16
ENDBRANCH   7  15
TORSDOF 4
ENDMDL
MODEL 9
REMARK VINA RESULT:      -6.3      1.546      3.939
REMARK  Name = ligand_pdbs\QKY.pdb
REMARK  4 active torsions:
REMARK  status: ('A' for Active; 'I' for Inactive)
REMARK    1  A    between atoms: C10_7  and  C9_19
REMARK    2  A    between atoms: C10_7  and  C11_22
REMARK    3  A    between atoms: C1_16  and  C3_18
REMARK    4  A    between atoms: C1_16  and  C9_19
REMARK                            x       y       z     vdW  Elec       q    Type
REMARK                         _______ _______ _______ _____ _____    ______ ____
ROOT
ATOM      1  N1  QKY A 701      25.491   2.826   5.458  0.00  0.00    +0.000 NA
ATOM      2  C17 QKY A 701      25.514   1.456   2.064  0.00  0.00    +0.000 C 
ATOM      3  O   QKY A 701      27.401   3.598   2.627  0.00  0.00    +0.000 OA
ATOM      4  C   QKY A 701      26.651   3.177   3.486  0.00  0.00    +0.000 C 
ATOM      5  N2  QKY A 701      24.030   1.099   4.556  0.00  0.00    +0.000 NA
ATOM      6  N   QKY A 701      25.727   2.176   3.328  0.00  0.00    +0.000 N 
ATOM      7  C1  QKY A 701      26.597   3.644   4.966  0.00  0.00    +0.000 C 
ATOM      8  C2  QKY A 701      25.005   1.987   4.506  0.00  0.00    +0.000 C 
ENDROOT
BRANCH   7  14
ATOM      9  C4  QKY A 701      25.010   5.659   4.922  0.00  0.00    +0.000 A 
ATOM     10  C5  QKY A 701      24.778   7.029   4.882  0.00  0.00    +0.000 A 
ATOM     11  C6  QKY A 701      25.829   7.918   5.013  0.00  0.00    +0.000 A 
ATOM     12  C7  QKY A 701      27.114   7.439   5.191  0.00  0.00    +0.000 A 
ATOM     13  C8  QKY A 701      27.352   6.069   5.236  0.00  0.00    +0.000 A 
ATOM     14  C3  QKY A 701      26.305   5.156   5.088  0.00  0.00    +0.000 A 
ENDBRANCH   7  14
BRANCH   7  15
ATOM     15  C9  QKY A 701      27.946   3.274   5.620  0.00  0.00    +0.000 C 
BRANCH  15  16
ATOM     16  C10 QKY A 701      27.990   1.968   6.421  0.00  0.00    +0.000 C 
BRANCH  16  22
ATOM     17  C13 QKY A 701      27.967  -1.454   4.539  0.00  0.00    +0.000 C 
ATOM     18  C15 QKY A 701      29.656   0.068   3.440  0.00  0.00    +0.000 C 
ATOM     19  C16 QKY A 701      29.112   1.244   4.258  0.00  0.00    +0.000 C 
ATOM     20  C14 QKY A 701      28.579  -0.999   3.210  0.00  0.00    +0.000 C 
ATOM     21  C12 QKY A 701      27.439  -0.262   5.349  0.00  0.00    +0.000 C 
ATOM     22  C11 QKY A 701      28.519   0.793   5.600  0.00  0.00    +0.000 C 
ENDBRANCH  16  22
ENDBRANCH  15  16
ENDBRANCH   7  15
TORSDOF 4
ENDMDL
