MODEL 1
REMARK VINA RESULT:      -3.3      0.000      0.000
REMARK  Name = ligand_pdbs\QL1.pdb
REMARK  3 active torsions:
REMARK  status: ('A' for Active; 'I' for Inactive)
REMARK    1  A    between atoms: C10_7  and  C11_17
REMARK    2  A    between atoms: C10_7  and  C_22
REMARK    3  A    between atoms: C14_19  and  O_20
REMARK                            x       y       z     vdW  Elec       q    Type
REMARK                         _______ _______ _______ _____ _____    ______ ____
ROOT
ATOM      1  N1  QL1 A 701      24.967   1.179   3.475  0.00  0.00    +0.000 N 
ATOM      2  C10 QL1 A 701      26.543   2.701   4.304  0.00  0.00    +0.000 C 
ATOM      3  C20 QL1 A 701      23.824   0.262   3.357  0.00  0.00    +0.000 C 
ATOM      4  O1  QL1 A 701      24.635   1.863   5.653  0.00  0.00    +0.000 OA
ATOM      5  C19 QL1 A 701      25.272   1.880   4.616  0.00  0.00    +0.000 C 
ATOM      6  C18 QL1 A 701      25.868   1.509   2.488  0.00  0.00    +0.000 C 
ATOM      7  N2  QL1 A 701      25.788   1.012   1.244  0.00  0.00    +0.000 NA
ATOM      8  N   QL1 A 701      26.760   2.339   2.887  0.00  0.00    +0.000 NA
ENDROOT
BRANCH   2  14
ATOM      9  C4  QL1 A 701      26.860   6.558   3.327  0.00  0.00    +0.000 C 
ATOM     10  C5  QL1 A 701      27.067   5.023   3.247  0.00  0.00    +0.000 C 
ATOM     11  C6  QL1 A 701      27.407   7.080   4.672  0.00  0.00    +0.000 C 
ATOM     12  C7  QL1 A 701      26.654   6.399   5.834  0.00  0.00    +0.000 C 
ATOM     13  C8  QL1 A 701      26.861   4.865   5.754  0.00  0.00    +0.000 C 
ATOM     14  C   QL1 A 701      26.323   4.285   4.405  0.00  0.00    +0.000 C 
ATOM     15  C3  QL1 A 701      25.352   6.876   3.222  0.00  0.00    +0.000 C 
ATOM     16  C9  QL1 A 701      25.147   6.716   5.732  0.00  0.00    +0.000 C 
ATOM     17  C2  QL1 A 701      24.600   6.195   4.385  0.00  0.00    +0.000 C 
ATOM     18  C1  QL1 A 701      24.811   4.659   4.303  0.00  0.00    +0.000 C 
ENDBRANCH   2  14
BRANCH   2  21
ATOM     19  C13 QL1 A 701      30.077   2.364   5.770  0.00  0.00    +0.000 A 
ATOM     20  C15 QL1 A 701      28.763   0.490   6.519  0.00  0.00    +0.000 A 
ATOM     21  C11 QL1 A 701      27.744   2.199   5.133  0.00  0.00    +0.000 A 
ATOM     22  C16 QL1 A 701      27.659   1.012   5.863  0.00  0.00    +0.000 A 
ATOM     23  C14 QL1 A 701      29.981   1.152   6.452  0.00  0.00    +0.000 A 
ATOM     24  C12 QL1 A 701      28.965   2.876   5.120  0.00  0.00    +0.000 A 
BRANCH  23  26
ATOM     25  C17 QL1 A 701      32.357   0.836   6.554  0.00  0.00    +0.000 C 
ATOM     26  O   QL1 A 701      31.047   0.463   6.975  0.00  0.00    +0.000 OA
ENDBRANCH  23  26
ENDBRANCH   2  21
TORSDOF 3
ENDMDL
MODEL 2
REMARK VINA RESULT:      -2.8      1.786      2.744
REMARK  Name = ligand_pdbs\QL1.pdb
REMARK  3 active torsions:
REMARK  status: ('A' for Active; 'I' for Inactive)
REMARK    1  A    between atoms: C10_7  and  C11_17
REMARK    2  A    between atoms: C10_7  and  C_22
REMARK    3  A    between atoms: C14_19  and  O_20
REMARK                            x       y       z     vdW  Elec       q    Type
REMARK                         _______ _______ _______ _____ _____    ______ ____
ROOT
ATOM      1  N1  QL1 A 701      26.849  -1.099   3.672  0.00  0.00    +0.000 N 
ATOM      2  C10 QL1 A 701      27.545   0.924   4.625  0.00  0.00    +0.000 C 
ATOM      3  C20 QL1 A 701      26.269  -2.436   3.477  0.00  0.00    +0.000 C 
ATOM      4  O1  QL1 A 701      26.287  -0.802   5.890  0.00  0.00    +0.000 OA
ATOM      5  C19 QL1 A 701      26.817  -0.417   4.864  0.00  0.00    +0.000 C 
ATOM      6  C18 QL1 A 701      27.465  -0.318   2.721  0.00  0.00    +0.000 C 
ATOM      7  N2  QL1 A 701      27.597  -0.709   1.444  0.00  0.00    +0.000 NA
ATOM      8  N   QL1 A 701      27.872   0.805   3.188  0.00  0.00    +0.000 NA
ENDROOT
BRANCH   2  14
ATOM      9  C4  QL1 A 701      26.010   4.138   6.427  0.00  0.00    +0.000 C 
ATOM     10  C5  QL1 A 701      26.904   2.890   6.210  0.00  0.00    +0.000 C 
ATOM     11  C6  QL1 A 701      24.526   3.716   6.399  0.00  0.00    +0.000 C 
ATOM     12  C7  QL1 A 701      24.196   3.080   5.033  0.00  0.00    +0.000 C 
ATOM     13  C8  QL1 A 701      25.091   1.833   4.815  0.00  0.00    +0.000 C 
ATOM     14  C   QL1 A 701      26.609   2.208   4.836  0.00  0.00    +0.000 C 
ATOM     15  C3  QL1 A 701      26.279   5.163   5.303  0.00  0.00    +0.000 C 
ATOM     16  C9  QL1 A 701      24.463   4.102   3.908  0.00  0.00    +0.000 C 
ATOM     17  C2  QL1 A 701      25.949   4.525   3.937  0.00  0.00    +0.000 C 
ATOM     18  C1  QL1 A 701      26.844   3.276   3.722  0.00  0.00    +0.000 C 
ENDBRANCH   2  14
BRANCH   2  21
ATOM     19  C13 QL1 A 701      31.068   1.931   5.776  0.00  0.00    +0.000 A 
ATOM     20  C15 QL1 A 701      30.358   0.031   7.075  0.00  0.00    +0.000 A 
ATOM     21  C11 QL1 A 701      28.861   0.991   5.428  0.00  0.00    +0.000 A 
ATOM     22  C16 QL1 A 701      29.135   0.053   6.425  0.00  0.00    +0.000 A 
ATOM     23  C14 QL1 A 701      31.337   0.954   6.734  0.00  0.00    +0.000 A 
ATOM     24  C12 QL1 A 701      29.840   1.942   5.134  0.00  0.00    +0.000 A 
BRANCH  23  26
ATOM     25  C17 QL1 A 701      33.719   0.850   6.466  0.00  0.00    +0.000 C 
ATOM     26  O   QL1 A 701      32.568   0.732   7.300  0.00  0.00    +0.000 OA
ENDBRANCH  23  26
ENDBRANCH   2  21
TORSDOF 3
ENDMDL
MODEL 3
REMARK VINA RESULT:      -2.3      1.981      5.540
REMARK  Name = ligand_pdbs\QL1.pdb
REMARK  3 active torsions:
REMARK  status: ('A' for Active; 'I' for Inactive)
REMARK    1  A    between atoms: C10_7  and  C11_17
REMARK    2  A    between atoms: C10_7  and  C_22
REMARK    3  A    between atoms: C14_19  and  O_20
REMARK                            x       y       z     vdW  Elec       q    Type
REMARK                         _______ _______ _______ _____ _____    ______ ____
ROOT
ATOM      1  N1  QL1 A 701      24.694   1.653   3.360  0.00  0.00    +0.000 N 
ATOM      2  C10 QL1 A 701      26.374   2.778   4.540  0.00  0.00    +0.000 C 
ATOM      3  C20 QL1 A 701      23.902   1.032   2.287  0.00  0.00    +0.000 C 
ATOM      4  O1  QL1 A 701      26.502   2.338   2.101  0.00  0.00    +0.000 OA
ATOM      5  C19 QL1 A 701      25.910   2.259   3.162  0.00  0.00    +0.000 C 
ATOM      6  C18 QL1 A 701      24.381   1.694   4.700  0.00  0.00    +0.000 C 
ATOM      7  N2  QL1 A 701      23.269   1.133   5.197  0.00  0.00    +0.000 NA
ATOM      8  N   QL1 A 701      25.267   2.304   5.397  0.00  0.00    +0.000 NA
ENDROOT
BRANCH   2  14
ATOM      9  C4  QL1 A 701      28.819  -0.021   5.997  0.00  0.00    +0.000 C 
ATOM     10  C5  QL1 A 701      27.504   0.639   5.507  0.00  0.00    +0.000 C 
ATOM     11  C6  QL1 A 701      29.381   0.779   7.190  0.00  0.00    +0.000 C 
ATOM     12  C7  QL1 A 701      29.668   2.230   6.749  0.00  0.00    +0.000 C 
ATOM     13  C8  QL1 A 701      28.354   2.889   6.259  0.00  0.00    +0.000 C 
ATOM     14  C   QL1 A 701      27.741   2.113   5.048  0.00  0.00    +0.000 C 
ATOM     15  C3  QL1 A 701      29.849  -0.026   4.845  0.00  0.00    +0.000 C 
ATOM     16  C9  QL1 A 701      30.697   2.228   5.599  0.00  0.00    +0.000 C 
ATOM     17  C2  QL1 A 701      30.135   1.425   4.405  0.00  0.00    +0.000 C 
ATOM     18  C1  QL1 A 701      28.817   2.084   3.917  0.00  0.00    +0.000 C 
ENDBRANCH   2  14
BRANCH   2  21
ATOM     19  C13 QL1 A 701      27.556   6.397   5.047  0.00  0.00    +0.000 A 
ATOM     20  C15 QL1 A 701      25.218   6.436   4.471  0.00  0.00    +0.000 A 
ATOM     21  C11 QL1 A 701      26.399   4.321   4.572  0.00  0.00    +0.000 A 
ATOM     22  C16 QL1 A 701      25.238   5.057   4.334  0.00  0.00    +0.000 A 
ATOM     23  C14 QL1 A 701      26.372   7.107   4.853  0.00  0.00    +0.000 A 
ATOM     24  C12 QL1 A 701      27.562   5.019   4.906  0.00  0.00    +0.000 A 
BRANCH  23  26
ATOM     25  C17 QL1 A 701      25.059   8.819   5.901  0.00  0.00    +0.000 C 
ATOM     26  O   QL1 A 701      26.202   8.439   5.139  0.00  0.00    +0.000 OA
ENDBRANCH  23  26
ENDBRANCH   2  21
TORSDOF 3
ENDMDL
MODEL 4
REMARK VINA RESULT:      -2.2      2.441      5.986
REMARK  Name = ligand_pdbs\QL1.pdb
REMARK  3 active torsions:
REMARK  status: ('A' for Active; 'I' for Inactive)
REMARK    1  A    between atoms: C10_7  and  C11_17
REMARK    2  A    between atoms: C10_7  and  C_22
REMARK    3  A    between atoms: C14_19  and  O_20
REMARK                            x       y       z     vdW  Elec       q    Type
REMARK                         _______ _______ _______ _____ _____    ______ ____
ROOT
ATOM      1  N1  QL1 A 701      29.588   2.188   6.701  0.00  0.00    +0.000 N 
ATOM      2  C10 QL1 A 701      27.939   2.800   5.155  0.00  0.00    +0.000 C 
ATOM      3  C20 QL1 A 701      30.276   1.723   7.915  0.00  0.00    +0.000 C 
ATOM      4  O1  QL1 A 701      27.411   1.899   7.407  0.00  0.00    +0.000 OA
ATOM      5  C19 QL1 A 701      28.222   2.247   6.569  0.00  0.00    +0.000 C 
ATOM      6  C18 QL1 A 701      30.174   2.592   5.523  0.00  0.00    +0.000 C 
ATOM      7  N2  QL1 A 701      31.504   2.592   5.342  0.00  0.00    +0.000 NA
ATOM      8  N   QL1 A 701      29.316   2.943   4.637  0.00  0.00    +0.000 NA
ENDROOT
BRANCH   2  14
ATOM      9  C4  QL1 A 701      25.336  -0.058   4.157  0.00  0.00    +0.000 C 
ATOM     10  C5  QL1 A 701      26.124   0.933   5.052  0.00  0.00    +0.000 C 
ATOM     11  C6  QL1 A 701      26.325  -1.022   3.468  0.00  0.00    +0.000 C 
ATOM     12  C7  QL1 A 701      27.311  -0.216   2.597  0.00  0.00    +0.000 C 
ATOM     13  C8  QL1 A 701      28.097   0.776   3.492  0.00  0.00    +0.000 C 
ATOM     14  C   QL1 A 701      27.138   1.777   4.216  0.00  0.00    +0.000 C 
ATOM     15  C3  QL1 A 701      24.552   0.732   3.086  0.00  0.00    +0.000 C 
ATOM     16  C9  QL1 A 701      26.529   0.574   1.526  0.00  0.00    +0.000 C 
ATOM     17  C2  QL1 A 701      25.539   1.538   2.216  0.00  0.00    +0.000 C 
ATOM     18  C1  QL1 A 701      26.326   2.529   3.115  0.00  0.00    +0.000 C 
ENDBRANCH   2  14
BRANCH   2  21
ATOM     19  C13 QL1 A 701      25.328   5.593   5.515  0.00  0.00    +0.000 A 
ATOM     20  C15 QL1 A 701      27.414   6.587   4.837  0.00  0.00    +0.000 A 
ATOM     21  C11 QL1 A 701      27.288   4.197   5.227  0.00  0.00    +0.000 A 
ATOM     22  C16 QL1 A 701      28.016   5.339   4.888  0.00  0.00    +0.000 A 
ATOM     23  C14 QL1 A 701      26.063   6.712   5.126  0.00  0.00    +0.000 A 
ATOM     24  C12 QL1 A 701      25.942   4.352   5.563  0.00  0.00    +0.000 A 
BRANCH  23  26
ATOM     25  C17 QL1 A 701      25.042   8.712   5.972  0.00  0.00    +0.000 C 
ATOM     26  O   QL1 A 701      25.526   7.950   4.869  0.00  0.00    +0.000 OA
ENDBRANCH  23  26
ENDBRANCH   2  21
TORSDOF 3
ENDMDL
MODEL 5
REMARK VINA RESULT:      -1.5      2.238      4.806
REMARK  Name = ligand_pdbs\QL1.pdb
REMARK  3 active torsions:
REMARK  status: ('A' for Active; 'I' for Inactive)
REMARK    1  A    between atoms: C10_7  and  C11_17
REMARK    2  A    between atoms: C10_7  and  C_22
REMARK    3  A    between atoms: C14_19  and  O_20
REMARK                            x       y       z     vdW  Elec       q    Type
REMARK                         _______ _______ _______ _____ _____    ______ ____
ROOT
ATOM      1  N1  QL1 A 701      26.855   4.603   5.623  0.00  0.00    +0.000 N 
ATOM      2  C10 QL1 A 701      27.628   2.412   5.323  0.00  0.00    +0.000 C 
ATOM      3  C20 QL1 A 701      26.631   6.048   5.474  0.00  0.00    +0.000 C 
ATOM      4  O1  QL1 A 701      28.298   4.294   3.850  0.00  0.00    +0.000 OA
ATOM      5  C19 QL1 A 701      27.679   3.867   4.807  0.00  0.00    +0.000 C 
ATOM      6  C18 QL1 A 701      26.269   3.766   6.546  0.00  0.00    +0.000 C 
ATOM      7  N2  QL1 A 701      25.375   4.201   7.446  0.00  0.00    +0.000 NA
ATOM      8  N   QL1 A 701      26.659   2.550   6.431  0.00  0.00    +0.000 NA
ENDROOT
BRANCH   2  14
ATOM      9  C4  QL1 A 701      25.728  -0.817   3.944  0.00  0.00    +0.000 C 
ATOM     10  C5  QL1 A 701      26.305   0.197   4.967  0.00  0.00    +0.000 C 
ATOM     11  C6  QL1 A 701      26.879  -1.403   3.100  0.00  0.00    +0.000 C 
ATOM     12  C7  QL1 A 701      27.598  -0.264   2.346  0.00  0.00    +0.000 C 
ATOM     13  C8  QL1 A 701      28.173   0.749   3.369  0.00  0.00    +0.000 C 
ATOM     14  C   QL1 A 701      27.044   1.372   4.252  0.00  0.00    +0.000 C 
ATOM     15  C3  QL1 A 701      24.723  -0.094   3.020  0.00  0.00    +0.000 C 
ATOM     16  C9  QL1 A 701      26.596   0.458   1.421  0.00  0.00    +0.000 C 
ATOM     17  C2  QL1 A 701      25.443   1.044   2.266  0.00  0.00    +0.000 C 
ATOM     18  C1  QL1 A 701      26.020   2.055   3.293  0.00  0.00    +0.000 C 
ENDBRANCH   2  14
BRANCH   2  21
ATOM     19  C13 QL1 A 701      31.385   2.299   6.111  0.00  0.00    +0.000 A 
ATOM     20  C15 QL1 A 701      30.354   0.336   7.048  0.00  0.00    +0.000 A 
ATOM     21  C11 QL1 A 701      28.991   1.984   5.908  0.00  0.00    +0.000 A 
ATOM     22  C16 QL1 A 701      29.117   0.789   6.616  0.00  0.00    +0.000 A 
ATOM     23  C14 QL1 A 701      31.494   1.078   6.774  0.00  0.00    +0.000 A 
ATOM     24  C12 QL1 A 701      30.143   2.741   5.685  0.00  0.00    +0.000 A 
BRANCH  23  26
ATOM     25  C17 QL1 A 701      33.862   0.912   6.425  0.00  0.00    +0.000 C 
ATOM     26  O   QL1 A 701      32.680   0.456   7.079  0.00  0.00    +0.000 OA
ENDBRANCH  23  26
ENDBRANCH   2  21
TORSDOF 3
ENDMDL
