MODEL 1
REMARK VINA RESULT:      -9.9      0.000      0.000
REMARK  Name = ligand_pdbs\R18.pdb
REMARK  0 active torsions:
REMARK  status: ('A' for Active; 'I' for Inactive)
REMARK                            x       y       z     vdW  Elec       q    Type
REMARK                         _______ _______ _______ _____ _____    ______ ____
ROOT
ATOM      1  C1  R18 A1000      27.781   5.487   4.237  0.00  0.00    +0.000 C 
ATOM      2  C2  R18 A1000      27.454   6.718   5.054  0.00  0.00    +0.000 C 
ATOM      3  C3  R18 A1000      25.971   6.963   5.041  0.00  0.00    +0.000 C 
ATOM      4  C4  R18 A1000      25.200   5.821   5.450  0.00  0.00    +0.000 C 
ATOM      5  C5  R18 A1000      25.683   4.554   5.331  0.00  0.00    +0.000 C 
ATOM      6  C6  R18 A1000      24.828   3.401   5.833  0.00  0.00    +0.000 C 
ATOM      7  C7  R18 A1000      25.141   2.122   5.090  0.00  0.00    +0.000 C 
ATOM      8  C8  R18 A1000      26.640   1.804   5.243  0.00  0.00    +0.000 C 
ATOM      9  C9  R18 A1000      27.491   2.968   4.693  0.00  0.00    +0.000 C 
ATOM     10  C10 R18 A1000      27.021   4.251   4.757  0.00  0.00    +0.000 C 
ATOM     11  C11 R18 A1000      28.808   2.612   4.164  0.00  0.00    +0.000 C 
ATOM     12  C12 R18 A1000      29.286   1.353   4.121  0.00  0.00    +0.000 C 
ATOM     13  C13 R18 A1000      28.469   0.179   4.632  0.00  0.00    +0.000 C 
ATOM     14  C14 R18 A1000      26.983   0.538   4.516  0.00  0.00    +0.000 C 
ATOM     15  C15 R18 A1000      26.255  -0.744   4.966  0.00  0.00    +0.000 C 
ATOM     16  C16 R18 A1000      27.222  -1.837   4.502  0.00  0.00    +0.000 C 
ATOM     17  C17 R18 A1000      28.447  -1.136   3.848  0.00  0.00    +0.000 C 
ATOM     18  C18 R18 A1000      28.895  -0.064   6.101  0.00  0.00    +0.000 C 
ATOM     19  C27 R18 A1000      28.251  -0.909   2.372  0.00  0.00    +0.000 C 
ATOM     20  O83 R18 A1000      25.460   8.047   4.772  0.00  0.00    +0.000 OA
ATOM     21  O97 R18 A1000      29.591  -1.961   4.071  0.00  0.00    +0.000 OA
ENDROOT
TORSDOF 0
ENDMDL
MODEL 2
REMARK VINA RESULT:      -9.6      1.269      2.736
REMARK  Name = ligand_pdbs\R18.pdb
REMARK  0 active torsions:
REMARK  status: ('A' for Active; 'I' for Inactive)
REMARK                            x       y       z     vdW  Elec       q    Type
REMARK                         _______ _______ _______ _____ _____    ______ ____
ROOT
ATOM      1  C1  R18 A1000      24.330   4.681   4.773  0.00  0.00    +0.000 C 
ATOM      2  C2  R18 A1000      24.144   6.103   4.291  0.00  0.00    +0.000 C 
ATOM      3  C3  R18 A1000      25.161   7.000   4.938  0.00  0.00    +0.000 C 
ATOM      4  C4  R18 A1000      26.514   6.545   4.771  0.00  0.00    +0.000 C 
ATOM      5  C5  R18 A1000      26.804   5.233   4.553  0.00  0.00    +0.000 C 
ATOM      6  C6  R18 A1000      28.255   4.835   4.336  0.00  0.00    +0.000 C 
ATOM      7  C7  R18 A1000      28.500   3.403   4.753  0.00  0.00    +0.000 C 
ATOM      8  C8  R18 A1000      27.553   2.480   3.965  0.00  0.00    +0.000 C 
ATOM      9  C9  R18 A1000      26.084   2.873   4.228  0.00  0.00    +0.000 C 
ATOM     10  C10 R18 A1000      25.759   4.175   4.492  0.00  0.00    +0.000 C 
ATOM     11  C11 R18 A1000      25.098   1.795   4.128  0.00  0.00    +0.000 C 
ATOM     12  C12 R18 A1000      25.409   0.516   3.845  0.00  0.00    +0.000 C 
ATOM     13  C13 R18 A1000      26.845   0.087   3.601  0.00  0.00    +0.000 C 
ATOM     14  C14 R18 A1000      27.771   1.049   4.355  0.00  0.00    +0.000 C 
ATOM     15  C15 R18 A1000      29.180   0.469   4.119  0.00  0.00    +0.000 C 
ATOM     16  C16 R18 A1000      28.894  -1.033   4.032  0.00  0.00    +0.000 C 
ATOM     17  C17 R18 A1000      27.360  -1.231   4.189  0.00  0.00    +0.000 C 
ATOM     18  C18 R18 A1000      27.080   0.134   2.071  0.00  0.00    +0.000 C 
ATOM     19  C27 R18 A1000      26.953  -1.402   5.630  0.00  0.00    +0.000 C 
ATOM     20  O83 R18 A1000      24.882   8.056   5.500  0.00  0.00    +0.000 OA
ATOM     21  O97 R18 A1000      26.989  -2.385   3.434  0.00  0.00    +0.000 OA
ENDROOT
TORSDOF 0
ENDMDL
MODEL 3
REMARK VINA RESULT:      -8.9      1.243      6.627
REMARK  Name = ligand_pdbs\R18.pdb
REMARK  0 active torsions:
REMARK  status: ('A' for Active; 'I' for Inactive)
REMARK                            x       y       z     vdW  Elec       q    Type
REMARK                         _______ _______ _______ _____ _____    ______ ____
ROOT
ATOM      1  C1  R18 A1000      27.062  -0.575   3.192  0.00  0.00    +0.000 C 
ATOM      2  C2  R18 A1000      27.459  -1.938   3.717  0.00  0.00    +0.000 C 
ATOM      3  C3  R18 A1000      28.952  -2.012   3.873  0.00  0.00    +0.000 C 
ATOM      4  C4  R18 A1000      29.497  -0.945   4.668  0.00  0.00    +0.000 C 
ATOM      5  C5  R18 A1000      28.857   0.249   4.795  0.00  0.00    +0.000 C 
ATOM      6  C6  R18 A1000      29.471   1.311   5.693  0.00  0.00    +0.000 C 
ATOM      7  C7  R18 A1000      29.073   2.701   5.253  0.00  0.00    +0.000 C 
ATOM      8  C8  R18 A1000      27.536   2.806   5.247  0.00  0.00    +0.000 C 
ATOM      9  C9  R18 A1000      26.933   1.747   4.300  0.00  0.00    +0.000 C 
ATOM     10  C10 R18 A1000      27.569   0.551   4.114  0.00  0.00    +0.000 C 
ATOM     11  C11 R18 A1000      25.652   2.090   3.680  0.00  0.00    +0.000 C 
ATOM     12  C12 R18 A1000      25.009   3.257   3.878  0.00  0.00    +0.000 C 
ATOM     13  C13 R18 A1000      25.582   4.331   4.785  0.00  0.00    +0.000 C 
ATOM     14  C14 R18 A1000      27.107   4.176   4.814  0.00  0.00    +0.000 C 
ATOM     15  C15 R18 A1000      27.584   5.361   5.676  0.00  0.00    +0.000 C 
ATOM     16  C16 R18 A1000      26.535   6.430   5.355  0.00  0.00    +0.000 C 
ATOM     17  C17 R18 A1000      25.512   5.803   4.366  0.00  0.00    +0.000 C 
ATOM     18  C18 R18 A1000      24.951   4.128   6.184  0.00  0.00    +0.000 C 
ATOM     19  C27 R18 A1000      25.916   6.000   2.928  0.00  0.00    +0.000 C 
ATOM     20  O83 R18 A1000      29.641  -2.924   3.426  0.00  0.00    +0.000 OA
ATOM     21  O97 R18 A1000      24.243   6.413   4.608  0.00  0.00    +0.000 OA
ENDROOT
TORSDOF 0
ENDMDL
MODEL 4
REMARK VINA RESULT:      -7.6      1.305      6.476
REMARK  Name = ligand_pdbs\R18.pdb
REMARK  0 active torsions:
REMARK  status: ('A' for Active; 'I' for Inactive)
REMARK                            x       y       z     vdW  Elec       q    Type
REMARK                         _______ _______ _______ _____ _____    ______ ____
ROOT
ATOM      1  C1  R18 A1000      29.039   0.947   3.891  0.00  0.00    +0.000 C 
ATOM      2  C2  R18 A1000      29.217  -0.327   3.094  0.00  0.00    +0.000 C 
ATOM      3  C3  R18 A1000      28.236  -1.365   3.560  0.00  0.00    +0.000 C 
ATOM      4  C4  R18 A1000      26.873  -0.908   3.552  0.00  0.00    +0.000 C 
ATOM      5  C5  R18 A1000      26.563   0.414   3.646  0.00  0.00    +0.000 C 
ATOM      6  C6  R18 A1000      25.101   0.825   3.580  0.00  0.00    +0.000 C 
ATOM      7  C7  R18 A1000      24.861   2.122   4.318  0.00  0.00    +0.000 C 
ATOM      8  C8  R18 A1000      25.767   3.216   3.723  0.00  0.00    +0.000 C 
ATOM      9  C9  R18 A1000      27.249   2.799   3.834  0.00  0.00    +0.000 C 
ATOM     10  C10 R18 A1000      27.596   1.477   3.785  0.00  0.00    +0.000 C 
ATOM     11  C11 R18 A1000      28.220   3.889   3.943  0.00  0.00    +0.000 C 
ATOM     12  C12 R18 A1000      27.887   5.194   3.968  0.00  0.00    +0.000 C 
ATOM     13  C13 R18 A1000      26.438   5.641   3.882  0.00  0.00    +0.000 C 
ATOM     14  C14 R18 A1000      25.553   4.518   4.433  0.00  0.00    +0.000 C 
ATOM     15  C15 R18 A1000      24.131   5.111   4.388  0.00  0.00    +0.000 C 
ATOM     16  C16 R18 A1000      24.400   6.599   4.631  0.00  0.00    +0.000 C 
ATOM     17  C17 R18 A1000      25.937   6.783   4.771  0.00  0.00    +0.000 C 
ATOM     18  C18 R18 A1000      26.142   5.935   2.391  0.00  0.00    +0.000 C 
ATOM     19  C27 R18 A1000      26.401   6.633   6.196  0.00  0.00    +0.000 C 
ATOM     20  O83 R18 A1000      28.547  -2.515   3.858  0.00  0.00    +0.000 OA
ATOM     21  O97 R18 A1000      26.267   8.084   4.282  0.00  0.00    +0.000 OA
ENDROOT
TORSDOF 0
ENDMDL
