MODEL 1
REMARK VINA RESULT:      -9.9      0.000      0.000
REMARK  Name = ligand_pdbs\R18_A_934.pdb
REMARK  0 active torsions:
REMARK  status: ('A' for Active; 'I' for Inactive)
REMARK                            x       y       z     vdW  Elec       q    Type
REMARK                         _______ _______ _______ _____ _____    ______ ____
ROOT
ATOM      1  C1  R18 A1000      27.791   5.479   4.232  0.00  0.00    +0.000 C 
ATOM      2  C2  R18 A1000      27.468   6.709   5.051  0.00  0.00    +0.000 C 
ATOM      3  C3  R18 A1000      25.986   6.960   5.035  0.00  0.00    +0.000 C 
ATOM      4  C4  R18 A1000      25.209   5.820   5.439  0.00  0.00    +0.000 C 
ATOM      5  C5  R18 A1000      25.686   4.551   5.318  0.00  0.00    +0.000 C 
ATOM      6  C6  R18 A1000      24.826   3.400   5.813  0.00  0.00    +0.000 C 
ATOM      7  C7  R18 A1000      25.135   2.122   5.067  0.00  0.00    +0.000 C 
ATOM      8  C8  R18 A1000      26.632   1.797   5.223  0.00  0.00    +0.000 C 
ATOM      9  C9  R18 A1000      27.490   2.960   4.679  0.00  0.00    +0.000 C 
ATOM     10  C10 R18 A1000      27.025   4.244   4.745  0.00  0.00    +0.000 C 
ATOM     11  C11 R18 A1000      28.807   2.600   4.152  0.00  0.00    +0.000 C 
ATOM     12  C12 R18 A1000      29.280   1.339   4.106  0.00  0.00    +0.000 C 
ATOM     13  C13 R18 A1000      28.457   0.167   4.612  0.00  0.00    +0.000 C 
ATOM     14  C14 R18 A1000      26.972   0.533   4.493  0.00  0.00    +0.000 C 
ATOM     15  C15 R18 A1000      26.238  -0.748   4.937  0.00  0.00    +0.000 C 
ATOM     16  C16 R18 A1000      27.202  -1.843   4.472  0.00  0.00    +0.000 C 
ATOM     17  C17 R18 A1000      28.431  -1.146   3.823  0.00  0.00    +0.000 C 
ATOM     18  C18 R18 A1000      28.878  -0.082   6.081  0.00  0.00    +0.000 C 
ATOM     19  C27 R18 A1000      28.239  -0.913   2.348  0.00  0.00    +0.000 C 
ATOM     20  O83 R18 A1000      25.480   8.046   4.769  0.00  0.00    +0.000 OA
ATOM     21  O97 R18 A1000      29.572  -1.976   4.046  0.00  0.00    +0.000 OA
ENDROOT
TORSDOF 0
ENDMDL
MODEL 2
REMARK VINA RESULT:      -9.6      1.280      2.749
REMARK  Name = ligand_pdbs\R18_A_934.pdb
REMARK  0 active torsions:
REMARK  status: ('A' for Active; 'I' for Inactive)
REMARK                            x       y       z     vdW  Elec       q    Type
REMARK                         _______ _______ _______ _____ _____    ______ ____
ROOT
ATOM      1  C1  R18 A1000      24.297   4.686   4.802  0.00  0.00    +0.000 C 
ATOM      2  C2  R18 A1000      24.074   6.100   4.314  0.00  0.00    +0.000 C 
ATOM      3  C3  R18 A1000      25.094   7.020   4.925  0.00  0.00    +0.000 C 
ATOM      4  C4  R18 A1000      26.449   6.585   4.724  0.00  0.00    +0.000 C 
ATOM      5  C5  R18 A1000      26.754   5.277   4.508  0.00  0.00    +0.000 C 
ATOM      6  C6  R18 A1000      28.205   4.901   4.254  0.00  0.00    +0.000 C 
ATOM      7  C7  R18 A1000      28.486   3.477   4.675  0.00  0.00    +0.000 C 
ATOM      8  C8  R18 A1000      27.532   2.531   3.921  0.00  0.00    +0.000 C 
ATOM      9  C9  R18 A1000      26.065   2.903   4.222  0.00  0.00    +0.000 C 
ATOM     10  C10 R18 A1000      25.726   4.201   4.485  0.00  0.00    +0.000 C 
ATOM     11  C11 R18 A1000      25.095   1.808   4.159  0.00  0.00    +0.000 C 
ATOM     12  C12 R18 A1000      25.419   0.532   3.877  0.00  0.00    +0.000 C 
ATOM     13  C13 R18 A1000      26.855   0.124   3.596  0.00  0.00    +0.000 C 
ATOM     14  C14 R18 A1000      27.785   1.107   4.316  0.00  0.00    +0.000 C 
ATOM     15  C15 R18 A1000      29.196   0.549   4.045  0.00  0.00    +0.000 C 
ATOM     16  C16 R18 A1000      28.933  -0.958   3.978  0.00  0.00    +0.000 C 
ATOM     17  C17 R18 A1000      27.407  -1.180   4.180  0.00  0.00    +0.000 C 
ATOM     18  C18 R18 A1000      27.045   0.162   2.060  0.00  0.00    +0.000 C 
ATOM     19  C27 R18 A1000      27.044  -1.346   5.633  0.00  0.00    +0.000 C 
ATOM     20  O83 R18 A1000      24.812   8.075   5.486  0.00  0.00    +0.000 OA
ATOM     21  O97 R18 A1000      27.035  -2.346   3.444  0.00  0.00    +0.000 OA
ENDROOT
TORSDOF 0
ENDMDL
MODEL 3
REMARK VINA RESULT:      -8.9      1.242      6.627
REMARK  Name = ligand_pdbs\R18_A_934.pdb
REMARK  0 active torsions:
REMARK  status: ('A' for Active; 'I' for Inactive)
REMARK                            x       y       z     vdW  Elec       q    Type
REMARK                         _______ _______ _______ _____ _____    ______ ____
ROOT
ATOM      1  C1  R18 A1000      27.063  -0.576   3.189  0.00  0.00    +0.000 C 
ATOM      2  C2  R18 A1000      27.462  -1.938   3.713  0.00  0.00    +0.000 C 
ATOM      3  C3  R18 A1000      28.955  -2.011   3.864  0.00  0.00    +0.000 C 
ATOM      4  C4  R18 A1000      29.502  -0.945   4.658  0.00  0.00    +0.000 C 
ATOM      5  C5  R18 A1000      28.862   0.250   4.787  0.00  0.00    +0.000 C 
ATOM      6  C6  R18 A1000      29.478   1.311   5.683  0.00  0.00    +0.000 C 
ATOM      7  C7  R18 A1000      29.078   2.701   5.244  0.00  0.00    +0.000 C 
ATOM      8  C8  R18 A1000      27.541   2.806   5.242  0.00  0.00    +0.000 C 
ATOM      9  C9  R18 A1000      26.936   1.747   4.297  0.00  0.00    +0.000 C 
ATOM     10  C10 R18 A1000      27.572   0.551   4.109  0.00  0.00    +0.000 C 
ATOM     11  C11 R18 A1000      25.653   2.089   3.680  0.00  0.00    +0.000 C 
ATOM     12  C12 R18 A1000      25.010   3.255   3.880  0.00  0.00    +0.000 C 
ATOM     13  C13 R18 A1000      25.585   4.330   4.786  0.00  0.00    +0.000 C 
ATOM     14  C14 R18 A1000      27.110   4.175   4.811  0.00  0.00    +0.000 C 
ATOM     15  C15 R18 A1000      27.590   5.361   5.671  0.00  0.00    +0.000 C 
ATOM     16  C16 R18 A1000      26.539   6.429   5.353  0.00  0.00    +0.000 C 
ATOM     17  C17 R18 A1000      25.513   5.802   4.367  0.00  0.00    +0.000 C 
ATOM     18  C18 R18 A1000      24.958   4.127   6.187  0.00  0.00    +0.000 C 
ATOM     19  C27 R18 A1000      25.914   5.999   2.928  0.00  0.00    +0.000 C 
ATOM     20  O83 R18 A1000      29.644  -2.923   3.415  0.00  0.00    +0.000 OA
ATOM     21  O97 R18 A1000      24.245   6.411   4.612  0.00  0.00    +0.000 OA
ENDROOT
TORSDOF 0
ENDMDL
MODEL 4
REMARK VINA RESULT:      -8.3      1.308      2.264
REMARK  Name = ligand_pdbs\R18_A_934.pdb
REMARK  0 active torsions:
REMARK  status: ('A' for Active; 'I' for Inactive)
REMARK                            x       y       z     vdW  Elec       q    Type
REMARK                         _______ _______ _______ _____ _____    ______ ____
ROOT
ATOM      1  C1  R18 A1000      25.434   4.995   3.776  0.00  0.00    +0.000 C 
ATOM      2  C2  R18 A1000      25.699   6.480   3.659  0.00  0.00    +0.000 C 
ATOM      3  C3  R18 A1000      26.011   7.053   5.013  0.00  0.00    +0.000 C 
ATOM      4  C4  R18 A1000      27.074   6.366   5.694  0.00  0.00    +0.000 C 
ATOM      5  C5  R18 A1000      27.377   5.068   5.417  0.00  0.00    +0.000 C 
ATOM      6  C6  R18 A1000      28.547   4.424   6.142  0.00  0.00    +0.000 C 
ATOM      7  C7  R18 A1000      28.370   2.927   6.251  0.00  0.00    +0.000 C 
ATOM      8  C8  R18 A1000      28.205   2.335   4.838  0.00  0.00    +0.000 C 
ATOM      9  C9  R18 A1000      26.990   2.972   4.132  0.00  0.00    +0.000 C 
ATOM     10  C10 R18 A1000      26.628   4.261   4.415  0.00  0.00    +0.000 C 
ATOM     11  C11 R18 A1000      26.310   2.139   3.139  0.00  0.00    +0.000 C 
ATOM     12  C12 R18 A1000      26.675   0.878   2.838  0.00  0.00    +0.000 C 
ATOM     13  C13 R18 A1000      27.852   0.211   3.527  0.00  0.00    +0.000 C 
ATOM     14  C14 R18 A1000      28.027   0.849   4.910  0.00  0.00    +0.000 C 
ATOM     15  C15 R18 A1000      29.172   0.040   5.550  0.00  0.00    +0.000 C 
ATOM     16  C16 R18 A1000      28.965  -1.346   4.932  0.00  0.00    +0.000 C 
ATOM     17  C17 R18 A1000      27.752  -1.254   3.964  0.00  0.00    +0.000 C 
ATOM     18  C18 R18 A1000      29.091   0.431   2.625  0.00  0.00    +0.000 C 
ATOM     19  C27 R18 A1000      26.447  -1.547   4.658  0.00  0.00    +0.000 C 
ATOM     20  O83 R18 A1000      25.463   8.051   5.475  0.00  0.00    +0.000 OA
ATOM     21  O97 R18 A1000      27.966  -2.189   2.906  0.00  0.00    +0.000 OA
ENDROOT
TORSDOF 0
ENDMDL
MODEL 5
REMARK VINA RESULT:      -7.6      1.296      6.475
REMARK  Name = ligand_pdbs\R18_A_934.pdb
REMARK  0 active torsions:
REMARK  status: ('A' for Active; 'I' for Inactive)
REMARK                            x       y       z     vdW  Elec       q    Type
REMARK                         _______ _______ _______ _____ _____    ______ ____
ROOT
ATOM      1  C1  R18 A1000      29.038   0.947   3.892  0.00  0.00    +0.000 C 
ATOM      2  C2  R18 A1000      29.216  -0.327   3.095  0.00  0.00    +0.000 C 
ATOM      3  C3  R18 A1000      28.234  -1.365   3.563  0.00  0.00    +0.000 C 
ATOM      4  C4  R18 A1000      26.872  -0.907   3.555  0.00  0.00    +0.000 C 
ATOM      5  C5  R18 A1000      26.562   0.415   3.649  0.00  0.00    +0.000 C 
ATOM      6  C6  R18 A1000      25.100   0.825   3.583  0.00  0.00    +0.000 C 
ATOM      7  C7  R18 A1000      24.860   2.123   4.320  0.00  0.00    +0.000 C 
ATOM      8  C8  R18 A1000      25.766   3.216   3.724  0.00  0.00    +0.000 C 
ATOM      9  C9  R18 A1000      27.248   2.800   3.835  0.00  0.00    +0.000 C 
ATOM     10  C10 R18 A1000      27.594   1.478   3.787  0.00  0.00    +0.000 C 
ATOM     11  C11 R18 A1000      28.219   3.889   3.943  0.00  0.00    +0.000 C 
ATOM     12  C12 R18 A1000      27.886   5.194   3.967  0.00  0.00    +0.000 C 
ATOM     13  C13 R18 A1000      26.437   5.642   3.882  0.00  0.00    +0.000 C 
ATOM     14  C14 R18 A1000      25.551   4.519   4.434  0.00  0.00    +0.000 C 
ATOM     15  C15 R18 A1000      24.129   5.112   4.390  0.00  0.00    +0.000 C 
ATOM     16  C16 R18 A1000      24.398   6.600   4.632  0.00  0.00    +0.000 C 
ATOM     17  C17 R18 A1000      25.936   6.784   4.770  0.00  0.00    +0.000 C 
ATOM     18  C18 R18 A1000      26.140   5.935   2.390  0.00  0.00    +0.000 C 
ATOM     19  C27 R18 A1000      26.400   6.635   6.196  0.00  0.00    +0.000 C 
ATOM     20  O83 R18 A1000      28.546  -2.514   3.861  0.00  0.00    +0.000 OA
ATOM     21  O97 R18 A1000      26.265   8.085   4.280  0.00  0.00    +0.000 OA
ENDROOT
TORSDOF 0
ENDMDL
MODEL 6
REMARK VINA RESULT:      -7.0      1.559      6.511
REMARK  Name = ligand_pdbs\R18_A_934.pdb
REMARK  0 active torsions:
REMARK  status: ('A' for Active; 'I' for Inactive)
REMARK                            x       y       z     vdW  Elec       q    Type
REMARK                         _______ _______ _______ _____ _____    ______ ____
ROOT
ATOM      1  C1  R18 A1000      28.561  -0.613   2.633  0.00  0.00    +0.000 C 
ATOM      2  C2  R18 A1000      28.914  -2.058   2.908  0.00  0.00    +0.000 C 
ATOM      3  C3  R18 A1000      30.116  -2.129   3.809  0.00  0.00    +0.000 C 
ATOM      4  C4  R18 A1000      29.968  -1.367   5.019  0.00  0.00    +0.000 C 
ATOM      5  C5  R18 A1000      29.121  -0.305   5.095  0.00  0.00    +0.000 C 
ATOM      6  C6  R18 A1000      28.982   0.420   6.424  0.00  0.00    +0.000 C 
ATOM      7  C7  R18 A1000      28.579   1.863   6.224  0.00  0.00    +0.000 C 
ATOM      8  C8  R18 A1000      27.261   1.913   5.429  0.00  0.00    +0.000 C 
ATOM      9  C9  R18 A1000      27.433   1.207   4.067  0.00  0.00    +0.000 C 
ATOM     10  C10 R18 A1000      28.306   0.162   3.941  0.00  0.00    +0.000 C 
ATOM     11  C11 R18 A1000      26.586   1.692   2.976  0.00  0.00    +0.000 C 
ATOM     12  C12 R18 A1000      25.708   2.705   3.100  0.00  0.00    +0.000 C 
ATOM     13  C13 R18 A1000      25.526   3.438   4.418  0.00  0.00    +0.000 C 
ATOM     14  C14 R18 A1000      26.833   3.333   5.212  0.00  0.00    +0.000 C 
ATOM     15  C15 R18 A1000      26.572   4.182   6.472  0.00  0.00    +0.000 C 
ATOM     16  C16 R18 A1000      25.625   5.261   5.936  0.00  0.00    +0.000 C 
ATOM     17  C17 R18 A1000      25.375   4.962   4.431  0.00  0.00    +0.000 C 
ATOM     18  C18 R18 A1000      24.343   2.762   5.154  0.00  0.00    +0.000 C 
ATOM     19  C27 R18 A1000      26.386   5.637   3.541  0.00  0.00    +0.000 C 
ATOM     20  O83 R18 A1000      31.105  -2.818   3.576  0.00  0.00    +0.000 OA
ATOM     21  O97 R18 A1000      24.058   5.415   4.110  0.00  0.00    +0.000 OA
ENDROOT
TORSDOF 0
ENDMDL
