MODEL 1
REMARK VINA RESULT:      -9.9      0.000      0.000
REMARK  Name = ligand_pdbs\R18_A_934.pdb
REMARK  0 active torsions:
REMARK  status: ('A' for Active; 'I' for Inactive)
REMARK                            x       y       z     vdW  Elec       q    Type
REMARK                         _______ _______ _______ _____ _____    ______ ____
ROOT
ATOM      1  C1  R18 A1000      27.781   5.487   4.237  0.00  0.00    +0.000 C 
ATOM      2  C2  R18 A1000      27.455   6.718   5.054  0.00  0.00    +0.000 C 
ATOM      3  C3  R18 A1000      25.972   6.963   5.040  0.00  0.00    +0.000 C 
ATOM      4  C4  R18 A1000      25.200   5.821   5.449  0.00  0.00    +0.000 C 
ATOM      5  C5  R18 A1000      25.682   4.554   5.330  0.00  0.00    +0.000 C 
ATOM      6  C6  R18 A1000      24.827   3.401   5.831  0.00  0.00    +0.000 C 
ATOM      7  C7  R18 A1000      25.140   2.122   5.088  0.00  0.00    +0.000 C 
ATOM      8  C8  R18 A1000      26.639   1.803   5.241  0.00  0.00    +0.000 C 
ATOM      9  C9  R18 A1000      27.490   2.968   4.693  0.00  0.00    +0.000 C 
ATOM     10  C10 R18 A1000      27.021   4.251   4.756  0.00  0.00    +0.000 C 
ATOM     11  C11 R18 A1000      28.808   2.611   4.164  0.00  0.00    +0.000 C 
ATOM     12  C12 R18 A1000      29.285   1.352   4.120  0.00  0.00    +0.000 C 
ATOM     13  C13 R18 A1000      28.468   0.179   4.631  0.00  0.00    +0.000 C 
ATOM     14  C14 R18 A1000      26.982   0.538   4.515  0.00  0.00    +0.000 C 
ATOM     15  C15 R18 A1000      26.254  -0.744   4.964  0.00  0.00    +0.000 C 
ATOM     16  C16 R18 A1000      27.220  -1.837   4.500  0.00  0.00    +0.000 C 
ATOM     17  C17 R18 A1000      28.445  -1.137   3.847  0.00  0.00    +0.000 C 
ATOM     18  C18 R18 A1000      28.893  -0.065   6.100  0.00  0.00    +0.000 C 
ATOM     19  C27 R18 A1000      28.250  -0.909   2.371  0.00  0.00    +0.000 C 
ATOM     20  O83 R18 A1000      25.461   8.047   4.772  0.00  0.00    +0.000 OA
ATOM     21  O97 R18 A1000      29.590  -1.962   4.069  0.00  0.00    +0.000 OA
ENDROOT
TORSDOF 0
ENDMDL
MODEL 2
REMARK VINA RESULT:      -9.6      1.259      2.726
REMARK  Name = ligand_pdbs\R18_A_934.pdb
REMARK  0 active torsions:
REMARK  status: ('A' for Active; 'I' for Inactive)
REMARK                            x       y       z     vdW  Elec       q    Type
REMARK                         _______ _______ _______ _____ _____    ______ ____
ROOT
ATOM      1  C1  R18 A1000      24.346   4.677   4.762  0.00  0.00    +0.000 C 
ATOM      2  C2  R18 A1000      24.176   6.102   4.283  0.00  0.00    +0.000 C 
ATOM      3  C3  R18 A1000      25.187   6.991   4.952  0.00  0.00    +0.000 C 
ATOM      4  C4  R18 A1000      26.540   6.529   4.806  0.00  0.00    +0.000 C 
ATOM      5  C5  R18 A1000      26.826   5.216   4.587  0.00  0.00    +0.000 C 
ATOM      6  C6  R18 A1000      28.278   4.811   4.393  0.00  0.00    +0.000 C 
ATOM      7  C7  R18 A1000      28.508   3.376   4.807  0.00  0.00    +0.000 C 
ATOM      8  C8  R18 A1000      27.569   2.461   3.999  0.00  0.00    +0.000 C 
ATOM      9  C9  R18 A1000      26.098   2.862   4.239  0.00  0.00    +0.000 C 
ATOM     10  C10 R18 A1000      25.776   4.165   4.503  0.00  0.00    +0.000 C 
ATOM     11  C11 R18 A1000      25.109   1.791   4.118  0.00  0.00    +0.000 C 
ATOM     12  C12 R18 A1000      25.417   0.511   3.834  0.00  0.00    +0.000 C 
ATOM     13  C13 R18 A1000      26.855   0.074   3.613  0.00  0.00    +0.000 C 
ATOM     14  C14 R18 A1000      27.773   1.028   4.386  0.00  0.00    +0.000 C 
ATOM     15  C15 R18 A1000      29.182   0.441   4.172  0.00  0.00    +0.000 C 
ATOM     16  C16 R18 A1000      28.889  -1.059   4.073  0.00  0.00    +0.000 C 
ATOM     17  C17 R18 A1000      27.352  -1.248   4.204  0.00  0.00    +0.000 C 
ATOM     18  C18 R18 A1000      27.116   0.127   2.087  0.00  0.00    +0.000 C 
ATOM     19  C27 R18 A1000      26.920  -1.424   5.636  0.00  0.00    +0.000 C 
ATOM     20  O83 R18 A1000      24.904   8.046   5.513  0.00  0.00    +0.000 OA
ATOM     21  O97 R18 A1000      26.988  -2.397   3.437  0.00  0.00    +0.000 OA
ENDROOT
TORSDOF 0
ENDMDL
MODEL 3
REMARK VINA RESULT:      -8.9      1.243      6.628
REMARK  Name = ligand_pdbs\R18_A_934.pdb
REMARK  0 active torsions:
REMARK  status: ('A' for Active; 'I' for Inactive)
REMARK                            x       y       z     vdW  Elec       q    Type
REMARK                         _______ _______ _______ _____ _____    ______ ____
ROOT
ATOM      1  C1  R18 A1000      27.063  -0.576   3.190  0.00  0.00    +0.000 C 
ATOM      2  C2  R18 A1000      27.461  -1.938   3.714  0.00  0.00    +0.000 C 
ATOM      3  C3  R18 A1000      28.955  -2.012   3.866  0.00  0.00    +0.000 C 
ATOM      4  C4  R18 A1000      29.502  -0.945   4.660  0.00  0.00    +0.000 C 
ATOM      5  C5  R18 A1000      28.861   0.249   4.788  0.00  0.00    +0.000 C 
ATOM      6  C6  R18 A1000      29.477   1.311   5.685  0.00  0.00    +0.000 C 
ATOM      7  C7  R18 A1000      29.077   2.700   5.246  0.00  0.00    +0.000 C 
ATOM      8  C8  R18 A1000      27.541   2.805   5.243  0.00  0.00    +0.000 C 
ATOM      9  C9  R18 A1000      26.935   1.746   4.298  0.00  0.00    +0.000 C 
ATOM     10  C10 R18 A1000      27.571   0.550   4.111  0.00  0.00    +0.000 C 
ATOM     11  C11 R18 A1000      25.653   2.089   3.681  0.00  0.00    +0.000 C 
ATOM     12  C12 R18 A1000      25.010   3.255   3.880  0.00  0.00    +0.000 C 
ATOM     13  C13 R18 A1000      25.585   4.330   4.787  0.00  0.00    +0.000 C 
ATOM     14  C14 R18 A1000      27.110   4.175   4.812  0.00  0.00    +0.000 C 
ATOM     15  C15 R18 A1000      27.589   5.360   5.672  0.00  0.00    +0.000 C 
ATOM     16  C16 R18 A1000      26.539   6.429   5.354  0.00  0.00    +0.000 C 
ATOM     17  C17 R18 A1000      25.513   5.801   4.368  0.00  0.00    +0.000 C 
ATOM     18  C18 R18 A1000      24.957   4.126   6.187  0.00  0.00    +0.000 C 
ATOM     19  C27 R18 A1000      25.914   5.998   2.929  0.00  0.00    +0.000 C 
ATOM     20  O83 R18 A1000      29.643  -2.924   3.417  0.00  0.00    +0.000 OA
ATOM     21  O97 R18 A1000      24.244   6.411   4.612  0.00  0.00    +0.000 OA
ENDROOT
TORSDOF 0
ENDMDL
