MODEL 1
REMARK VINA RESULT:      -7.8      0.000      0.000
REMARK  Name = ligand_pdbs\RB1.pdb
REMARK  3 active torsions:
REMARK  status: ('A' for Active; 'I' for Inactive)
REMARK    1  A    between atoms: C19_2  and  N7_5
REMARK    2  A    between atoms: C9_14  and  C11_15
REMARK    3  A    between atoms: C11_15  and  C12_16
REMARK                            x       y       z     vdW  Elec       q    Type
REMARK                         _______ _______ _______ _____ _____    ______ ____
ROOT
ATOM      1  N7  RB1 A 933      28.213  -0.181   3.879  0.00  0.00    +0.000 N 
ATOM      2  N8  RB1 A 933      27.666   0.650   3.149  0.00  0.00    +0.000 NA
ATOM      3  C3  RB1 A 933      28.832   0.393   4.912  0.00  0.00    +0.000 C 
ATOM      4  N2  RB1 A 933      29.539  -0.068   5.956  0.00  0.00    +0.000 NA
ATOM      5  C1  RB1 A 933      30.050   0.774   6.844  0.00  0.00    +0.000 C 
ATOM      6  N6  RB1 A 933      29.872   2.080   6.731  0.00  0.00    +0.000 NA
ATOM      7  C5  RB1 A 933      29.173   2.608   5.717  0.00  0.00    +0.000 C 
ATOM      8  N10 RB1 A 933      29.013   3.924   5.616  0.00  0.00    +0.000 NA
ATOM      9  C4  RB1 A 933      28.627   1.759   4.763  0.00  0.00    +0.000 C 
ATOM     10  C9  RB1 A 933      27.872   1.886   3.605  0.00  0.00    +0.000 C 
ENDROOT
BRANCH   1  12
ATOM     11  C20 RB1 A 933      27.583  -1.896   2.239  0.00  0.00    +0.000 C 
ATOM     12  C19 RB1 A 933      28.160  -1.650   3.637  0.00  0.00    +0.000 C 
ATOM     13  C21 RB1 A 933      27.267  -2.308   4.691  0.00  0.00    +0.000 C 
ATOM     14  C22 RB1 A 933      29.580  -2.221   3.719  0.00  0.00    +0.000 C 
ENDBRANCH   1  12
BRANCH  10  15
ATOM     15  C11 RB1 A 933      27.342   3.181   2.979  0.00  0.00    +0.000 C 
BRANCH  15  16
ATOM     16  C12 RB1 A 933      26.072   3.637   3.692  0.00  0.00    +0.000 A 
ATOM     17  C13 RB1 A 933      25.884   4.980   4.014  0.00  0.00    +0.000 A 
ATOM     18  C17 RB1 A 933      25.090   2.706   4.015  0.00  0.00    +0.000 A 
ATOM     19  C16 RB1 A 933      23.917   3.114   4.645  0.00  0.00    +0.000 A 
ATOM     20  C15 RB1 A 933      23.727   4.457   4.961  0.00  0.00    +0.000 A 
ATOM     21  C14 RB1 A 933      24.712   5.388   4.650  0.00  0.00    +0.000 A 
ATOM     22  O18 RB1 A 933      24.533   6.699   4.971  0.00  0.00    +0.000 OA
ENDBRANCH  15  16
ENDBRANCH  10  15
TORSDOF 3
ENDMDL
MODEL 2
REMARK VINA RESULT:      -7.3      1.088      1.878
REMARK  Name = ligand_pdbs\RB1.pdb
REMARK  3 active torsions:
REMARK  status: ('A' for Active; 'I' for Inactive)
REMARK    1  A    between atoms: C19_2  and  N7_5
REMARK    2  A    between atoms: C9_14  and  C11_15
REMARK    3  A    between atoms: C11_15  and  C12_16
REMARK                            x       y       z     vdW  Elec       q    Type
REMARK                         _______ _______ _______ _____ _____    ______ ____
ROOT
ATOM      1  N7  RB1 A 933      27.597  -0.119   4.464  0.00  0.00    +0.000 N 
ATOM      2  N8  RB1 A 933      26.471   0.385   4.432  0.00  0.00    +0.000 NA
ATOM      3  C3  RB1 A 933      28.454   0.621   5.169  0.00  0.00    +0.000 C 
ATOM      4  N2  RB1 A 933      29.751   0.498   5.494  0.00  0.00    +0.000 NA
ATOM      5  C1  RB1 A 933      30.349   1.428   6.227  0.00  0.00    +0.000 C 
ATOM      6  N6  RB1 A 933      29.688   2.489   6.661  0.00  0.00    +0.000 NA
ATOM      7  C5  RB1 A 933      28.391   2.671   6.378  0.00  0.00    +0.000 C 
ATOM      8  N10 RB1 A 933      27.746   3.748   6.815  0.00  0.00    +0.000 NA
ATOM      9  C4  RB1 A 933      27.731   1.722   5.608  0.00  0.00    +0.000 C 
ATOM     10  C9  RB1 A 933      26.450   1.536   5.105  0.00  0.00    +0.000 C 
ENDROOT
BRANCH   1  12
ATOM     11  C20 RB1 A 933      27.174  -2.536   4.513  0.00  0.00    +0.000 C 
ATOM     12  C19 RB1 A 933      27.938  -1.412   3.808  0.00  0.00    +0.000 C 
ATOM     13  C21 RB1 A 933      29.445  -1.658   3.921  0.00  0.00    +0.000 C 
ATOM     14  C22 RB1 A 933      27.524  -1.349   2.334  0.00  0.00    +0.000 C 
ENDBRANCH   1  12
BRANCH  10  15
ATOM     15  C11 RB1 A 933      25.233   2.447   5.302  0.00  0.00    +0.000 C 
BRANCH  15  16
ATOM     16  C12 RB1 A 933      25.483   3.813   4.671  0.00  0.00    +0.000 A 
ATOM     17  C13 RB1 A 933      24.873   4.955   5.189  0.00  0.00    +0.000 A 
ATOM     18  C17 RB1 A 933      26.336   3.923   3.577  0.00  0.00    +0.000 A 
ATOM     19  C16 RB1 A 933      26.589   5.168   3.008  0.00  0.00    +0.000 A 
ATOM     20  C15 RB1 A 933      25.985   6.309   3.529  0.00  0.00    +0.000 A 
ATOM     21  C14 RB1 A 933      25.123   6.201   4.615  0.00  0.00    +0.000 A 
ATOM     22  O18 RB1 A 933      24.519   7.314   5.116  0.00  0.00    +0.000 OA
ENDBRANCH  15  16
ENDBRANCH  10  15
TORSDOF 3
ENDMDL
MODEL 3
REMARK VINA RESULT:      -7.2      1.633      2.295
REMARK  Name = ligand_pdbs\RB1.pdb
REMARK  3 active torsions:
REMARK  status: ('A' for Active; 'I' for Inactive)
REMARK    1  A    between atoms: C19_2  and  N7_5
REMARK    2  A    between atoms: C9_14  and  C11_15
REMARK    3  A    between atoms: C11_15  and  C12_16
REMARK                            x       y       z     vdW  Elec       q    Type
REMARK                         _______ _______ _______ _____ _____    ______ ____
ROOT
ATOM      1  N7  RB1 A 933      27.310   1.365   3.736  0.00  0.00    +0.000 N 
ATOM      2  N8  RB1 A 933      27.240   2.572   3.493  0.00  0.00    +0.000 NA
ATOM      3  C3  RB1 A 933      28.128   1.108   4.758  0.00  0.00    +0.000 C 
ATOM      4  N2  RB1 A 933      28.518  -0.011   5.389  0.00  0.00    +0.000 NA
ATOM      5  C1  RB1 A 933      29.373   0.054   6.401  0.00  0.00    +0.000 C 
ATOM      6  N6  RB1 A 933      29.855   1.212   6.818  0.00  0.00    +0.000 NA
ATOM      7  C5  RB1 A 933      29.505   2.368   6.237  0.00  0.00    +0.000 C 
ATOM      8  N10 RB1 A 933      30.007   3.522   6.664  0.00  0.00    +0.000 NA
ATOM      9  C4  RB1 A 933      28.616   2.342   5.170  0.00  0.00    +0.000 C 
ATOM     10  C9  RB1 A 933      28.021   3.266   4.322  0.00  0.00    +0.000 C 
ENDROOT
BRANCH   1  12
ATOM     11  C20 RB1 A 933      25.598   1.030   2.009  0.00  0.00    +0.000 C 
ATOM     12  C19 RB1 A 933      26.548   0.329   2.985  0.00  0.00    +0.000 C 
ATOM     13  C21 RB1 A 933      25.744  -0.526   3.967  0.00  0.00    +0.000 C 
ATOM     14  C22 RB1 A 933      27.533  -0.550   2.206  0.00  0.00    +0.000 C 
ENDBRANCH   1  12
BRANCH  10  15
ATOM     15  C11 RB1 A 933      28.192   4.789   4.341  0.00  0.00    +0.000 C 
BRANCH  15  16
ATOM     16  C12 RB1 A 933      26.839   5.474   4.512  0.00  0.00    +0.000 A 
ATOM     17  C13 RB1 A 933      25.655   4.755   4.352  0.00  0.00    +0.000 A 
ATOM     18  C17 RB1 A 933      26.786   6.825   4.841  0.00  0.00    +0.000 A 
ATOM     19  C16 RB1 A 933      25.557   7.454   5.022  0.00  0.00    +0.000 A 
ATOM     20  C15 RB1 A 933      24.375   6.734   4.868  0.00  0.00    +0.000 A 
ATOM     21  C14 RB1 A 933      24.425   5.387   4.528  0.00  0.00    +0.000 A 
ATOM     22  O18 RB1 A 933      23.270   4.685   4.362  0.00  0.00    +0.000 OA
ENDBRANCH  15  16
ENDBRANCH  10  15
TORSDOF 3
ENDMDL
MODEL 4
REMARK VINA RESULT:      -7.2      1.803      3.875
REMARK  Name = ligand_pdbs\RB1.pdb
REMARK  3 active torsions:
REMARK  status: ('A' for Active; 'I' for Inactive)
REMARK    1  A    between atoms: C19_2  and  N7_5
REMARK    2  A    between atoms: C9_14  and  C11_15
REMARK    3  A    between atoms: C11_15  and  C12_16
REMARK                            x       y       z     vdW  Elec       q    Type
REMARK                         _______ _______ _______ _____ _____    ______ ____
ROOT
ATOM      1  N7  RB1 A 933      28.212   1.670   5.596  0.00  0.00    +0.000 N 
ATOM      2  N8  RB1 A 933      27.367   2.446   6.049  0.00  0.00    +0.000 NA
ATOM      3  C3  RB1 A 933      27.749   0.982   4.552  0.00  0.00    +0.000 C 
ATOM      4  N2  RB1 A 933      28.272   0.053   3.735  0.00  0.00    +0.000 NA
ATOM      5  C1  RB1 A 933      27.541  -0.466   2.757  0.00  0.00    +0.000 C 
ATOM      6  N6  RB1 A 933      26.293  -0.082   2.555  0.00  0.00    +0.000 NA
ATOM      7  C5  RB1 A 933      25.710   0.845   3.329  0.00  0.00    +0.000 C 
ATOM      8  N10 RB1 A 933      24.451   1.213   3.117  0.00  0.00    +0.000 NA
ATOM      9  C4  RB1 A 933      26.440   1.409   4.368  0.00  0.00    +0.000 C 
ATOM     10  C9  RB1 A 933      26.227   2.354   5.362  0.00  0.00    +0.000 C 
ENDROOT
BRANCH   1  12
ATOM     11  C20 RB1 A 933      29.863   2.738   7.066  0.00  0.00    +0.000 C 
ATOM     12  C19 RB1 A 933      29.590   1.543   6.147  0.00  0.00    +0.000 C 
ATOM     13  C21 RB1 A 933      30.599   1.532   4.997  0.00  0.00    +0.000 C 
ATOM     14  C22 RB1 A 933      29.691   0.240   6.948  0.00  0.00    +0.000 C 
ENDBRANCH   1  12
BRANCH  10  15
ATOM     15  C11 RB1 A 933      24.951   3.166   5.614  0.00  0.00    +0.000 C 
BRANCH  15  16
ATOM     16  C12 RB1 A 933      25.159   4.622   5.209  0.00  0.00    +0.000 A 
ATOM     17  C13 RB1 A 933      26.381   5.254   5.437  0.00  0.00    +0.000 A 
ATOM     18  C17 RB1 A 933      24.124   5.323   4.598  0.00  0.00    +0.000 A 
ATOM     19  C16 RB1 A 933      24.310   6.645   4.204  0.00  0.00    +0.000 A 
ATOM     20  C15 RB1 A 933      25.532   7.274   4.426  0.00  0.00    +0.000 A 
ATOM     21  C14 RB1 A 933      26.565   6.580   5.048  0.00  0.00    +0.000 A 
ATOM     22  O18 RB1 A 933      27.756   7.198   5.279  0.00  0.00    +0.000 OA
ENDBRANCH  15  16
ENDBRANCH  10  15
TORSDOF 3
ENDMDL
MODEL 5
REMARK VINA RESULT:      -7.0      1.568      2.095
REMARK  Name = ligand_pdbs\RB1.pdb
REMARK  3 active torsions:
REMARK  status: ('A' for Active; 'I' for Inactive)
REMARK    1  A    between atoms: C19_2  and  N7_5
REMARK    2  A    between atoms: C9_14  and  C11_15
REMARK    3  A    between atoms: C11_15  and  C12_16
REMARK                            x       y       z     vdW  Elec       q    Type
REMARK                         _______ _______ _______ _____ _____    ______ ____
ROOT
ATOM      1  N7  RB1 A 933      27.364   1.254   3.785  0.00  0.00    +0.000 N 
ATOM      2  N8  RB1 A 933      27.276   2.457   3.524  0.00  0.00    +0.000 NA
ATOM      3  C3  RB1 A 933      28.194   1.024   4.804  0.00  0.00    +0.000 C 
ATOM      4  N2  RB1 A 933      28.602  -0.080   5.449  0.00  0.00    +0.000 NA
ATOM      5  C1  RB1 A 933      29.465   0.012   6.453  0.00  0.00    +0.000 C 
ATOM      6  N6  RB1 A 933      29.936   1.183   6.848  0.00  0.00    +0.000 NA
ATOM      7  C5  RB1 A 933      29.566   2.325   6.252  0.00  0.00    +0.000 C 
ATOM      8  N10 RB1 A 933      30.057   3.492   6.656  0.00  0.00    +0.000 NA
ATOM      9  C4  RB1 A 933      28.669   2.271   5.192  0.00  0.00    +0.000 C 
ATOM     10  C9  RB1 A 933      28.055   3.174   4.335  0.00  0.00    +0.000 C 
ENDROOT
BRANCH   1  12
ATOM     11  C20 RB1 A 933      27.605  -0.671   2.282  0.00  0.00    +0.000 C 
ATOM     12  C19 RB1 A 933      26.609   0.197   3.056  0.00  0.00    +0.000 C 
ATOM     13  C21 RB1 A 933      25.626   0.852   2.083  0.00  0.00    +0.000 C 
ATOM     14  C22 RB1 A 933      25.850  -0.665   4.071  0.00  0.00    +0.000 C 
ENDBRANCH   1  12
BRANCH  10  15
ATOM     15  C11 RB1 A 933      28.207   4.699   4.329  0.00  0.00    +0.000 C 
BRANCH  15  16
ATOM     16  C12 RB1 A 933      26.848   5.369   4.509  0.00  0.00    +0.000 A 
ATOM     17  C13 RB1 A 933      26.760   6.673   4.994  0.00  0.00    +0.000 A 
ATOM     18  C17 RB1 A 933      25.687   4.678   4.175  0.00  0.00    +0.000 A 
ATOM     19  C16 RB1 A 933      24.444   5.288   4.313  0.00  0.00    +0.000 A 
ATOM     20  C15 RB1 A 933      24.356   6.593   4.792  0.00  0.00    +0.000 A 
ATOM     21  C14 RB1 A 933      25.513   7.282   5.137  0.00  0.00    +0.000 A 
ATOM     22  O18 RB1 A 933      25.429   8.553   5.619  0.00  0.00    +0.000 OA
ENDBRANCH  15  16
ENDBRANCH  10  15
TORSDOF 3
ENDMDL
MODEL 6
REMARK VINA RESULT:      -6.8      2.853      5.785
REMARK  Name = ligand_pdbs\RB1.pdb
REMARK  3 active torsions:
REMARK  status: ('A' for Active; 'I' for Inactive)
REMARK    1  A    between atoms: C19_2  and  N7_5
REMARK    2  A    between atoms: C9_14  and  C11_15
REMARK    3  A    between atoms: C11_15  and  C12_16
REMARK                            x       y       z     vdW  Elec       q    Type
REMARK                         _______ _______ _______ _____ _____    ______ ____
ROOT
ATOM      1  N7  RB1 A 933      25.693   3.406   4.573  0.00  0.00    +0.000 N 
ATOM      2  N8  RB1 A 933      25.626   2.586   3.654  0.00  0.00    +0.000 NA
ATOM      3  C3  RB1 A 933      26.901   3.426   5.137  0.00  0.00    +0.000 C 
ATOM      4  N2  RB1 A 933      27.457   4.130   6.136  0.00  0.00    +0.000 NA
ATOM      5  C1  RB1 A 933      28.720   3.917   6.484  0.00  0.00    +0.000 C 
ATOM      6  N6  RB1 A 933      29.461   3.018   5.857  0.00  0.00    +0.000 NA
ATOM      7  C5  RB1 A 933      28.971   2.285   4.848  0.00  0.00    +0.000 C 
ATOM      8  N10 RB1 A 933      29.729   1.380   4.236  0.00  0.00    +0.000 NA
ATOM      9  C4  RB1 A 933      27.651   2.475   4.458  0.00  0.00    +0.000 C 
ATOM     10  C9  RB1 A 933      26.788   1.947   3.507  0.00  0.00    +0.000 C 
ENDROOT
BRANCH   1  12
ATOM     11  C20 RB1 A 933      23.289   3.799   4.265  0.00  0.00    +0.000 C 
ATOM     12  C19 RB1 A 933      24.557   4.280   4.978  0.00  0.00    +0.000 C 
ATOM     13  C21 RB1 A 933      24.860   5.726   4.578  0.00  0.00    +0.000 C 
ATOM     14  C22 RB1 A 933      24.367   4.182   6.495  0.00  0.00    +0.000 C 
ENDBRANCH   1  12
BRANCH  10  15
ATOM     15  C11 RB1 A 933      27.102   0.867   2.465  0.00  0.00    +0.000 C 
BRANCH  15  16
ATOM     16  C12 RB1 A 933      27.339  -0.477   3.147  0.00  0.00    +0.000 A 
ATOM     17  C13 RB1 A 933      28.550  -1.149   2.986  0.00  0.00    +0.000 A 
ATOM     18  C17 RB1 A 933      26.343  -1.031   3.945  0.00  0.00    +0.000 A 
ATOM     19  C16 RB1 A 933      26.557  -2.247   4.590  0.00  0.00    +0.000 A 
ATOM     20  C15 RB1 A 933      27.769  -2.915   4.434  0.00  0.00    +0.000 A 
ATOM     21  C14 RB1 A 933      28.762  -2.369   3.627  0.00  0.00    +0.000 A 
ATOM     22  O18 RB1 A 933      29.941  -3.028   3.462  0.00  0.00    +0.000 OA
ENDBRANCH  15  16
ENDBRANCH  10  15
TORSDOF 3
ENDMDL
MODEL 7
REMARK VINA RESULT:      -6.5      1.289      3.468
REMARK  Name = ligand_pdbs\RB1.pdb
REMARK  3 active torsions:
REMARK  status: ('A' for Active; 'I' for Inactive)
REMARK    1  A    between atoms: C19_2  and  N7_5
REMARK    2  A    between atoms: C9_14  and  C11_15
REMARK    3  A    between atoms: C11_15  and  C12_16
REMARK                            x       y       z     vdW  Elec       q    Type
REMARK                         _______ _______ _______ _____ _____    ______ ____
ROOT
ATOM      1  N7  RB1 A 933      29.031   1.685   5.155  0.00  0.00    +0.000 N 
ATOM      2  N8  RB1 A 933      28.284   2.538   4.671  0.00  0.00    +0.000 NA
ATOM      3  C3  RB1 A 933      28.905   0.506   4.544  0.00  0.00    +0.000 C 
ATOM      4  N2  RB1 A 933      29.487  -0.695   4.693  0.00  0.00    +0.000 NA
ATOM      5  C1  RB1 A 933      29.139  -1.710   3.913  0.00  0.00    +0.000 C 
ATOM      6  N6  RB1 A 933      28.223  -1.567   2.971  0.00  0.00    +0.000 NA
ATOM      7  C5  RB1 A 933      27.606  -0.395   2.764  0.00  0.00    +0.000 C 
ATOM      8  N10 RB1 A 933      26.680  -0.274   1.817  0.00  0.00    +0.000 NA
ATOM      9  C4  RB1 A 933      27.939   0.691   3.564  0.00  0.00    +0.000 C 
ATOM     10  C9  RB1 A 933      27.556   2.020   3.681  0.00  0.00    +0.000 C 
ENDROOT
BRANCH   1  12
ATOM     11  C20 RB1 A 933      31.325   2.378   5.688  0.00  0.00    +0.000 C 
ATOM     12  C19 RB1 A 933      29.974   1.958   6.276  0.00  0.00    +0.000 C 
ATOM     13  C21 RB1 A 933      30.146   0.692   7.118  0.00  0.00    +0.000 C 
ATOM     14  C22 RB1 A 933      29.410   3.092   7.139  0.00  0.00    +0.000 C 
ENDBRANCH   1  12
BRANCH  10  15
ATOM     15  C11 RB1 A 933      26.525   2.768   2.828  0.00  0.00    +0.000 C 
BRANCH  15  16
ATOM     16  C12 RB1 A 933      25.856   3.869   3.646  0.00  0.00    +0.000 A 
ATOM     17  C13 RB1 A 933      26.404   5.150   3.692  0.00  0.00    +0.000 A 
ATOM     18  C17 RB1 A 933      24.683   3.595   4.342  0.00  0.00    +0.000 A 
ATOM     19  C16 RB1 A 933      24.052   4.599   5.073  0.00  0.00    +0.000 A 
ATOM     20  C15 RB1 A 933      24.596   5.879   5.114  0.00  0.00    +0.000 A 
ATOM     21  C14 RB1 A 933      25.774   6.153   4.428  0.00  0.00    +0.000 A 
ATOM     22  O18 RB1 A 933      26.316   7.401   4.479  0.00  0.00    +0.000 OA
ENDBRANCH  15  16
ENDBRANCH  10  15
TORSDOF 3
ENDMDL
MODEL 8
REMARK VINA RESULT:      -6.4      2.997      6.670
REMARK  Name = ligand_pdbs\RB1.pdb
REMARK  3 active torsions:
REMARK  status: ('A' for Active; 'I' for Inactive)
REMARK    1  A    between atoms: C19_2  and  N7_5
REMARK    2  A    between atoms: C9_14  and  C11_15
REMARK    3  A    between atoms: C11_15  and  C12_16
REMARK                            x       y       z     vdW  Elec       q    Type
REMARK                         _______ _______ _______ _____ _____    ______ ____
ROOT
ATOM      1  N7  RB1 A 933      26.196   5.369   4.248  0.00  0.00    +0.000 N 
ATOM      2  N8  RB1 A 933      27.210   4.755   3.907  0.00  0.00    +0.000 NA
ATOM      3  C3  RB1 A 933      25.119   4.582   4.266  0.00  0.00    +0.000 C 
ATOM      4  N2  RB1 A 933      23.824   4.771   4.569  0.00  0.00    +0.000 NA
ATOM      5  C1  RB1 A 933      22.963   3.766   4.485  0.00  0.00    +0.000 C 
ATOM      6  N6  RB1 A 933      23.353   2.558   4.112  0.00  0.00    +0.000 NA
ATOM      7  C5  RB1 A 933      24.630   2.298   3.801  0.00  0.00    +0.000 C 
ATOM      8  N10 RB1 A 933      25.001   1.080   3.419  0.00  0.00    +0.000 NA
ATOM      9  C4  RB1 A 933      25.562   3.327   3.870  0.00  0.00    +0.000 C 
ATOM     10  C9  RB1 A 933      26.923   3.480   3.641  0.00  0.00    +0.000 C 
ENDROOT
BRANCH   1  12
ATOM     11  C20 RB1 A 933      25.189   7.027   5.752  0.00  0.00    +0.000 C 
ATOM     12  C19 RB1 A 933      26.193   6.812   4.616  0.00  0.00    +0.000 C 
ATOM     13  C21 RB1 A 933      25.786   7.647   3.399  0.00  0.00    +0.000 C 
ATOM     14  C22 RB1 A 933      27.597   7.212   5.083  0.00  0.00    +0.000 C 
ENDBRANCH   1  12
BRANCH  10  15
ATOM     15  C11 RB1 A 933      27.918   2.401   3.200  0.00  0.00    +0.000 C 
BRANCH  15  16
ATOM     16  C12 RB1 A 933      28.375   1.577   4.400  0.00  0.00    +0.000 A 
ATOM     17  C13 RB1 A 933      27.893   0.284   4.596  0.00  0.00    +0.000 A 
ATOM     18  C17 RB1 A 933      29.289   2.116   5.300  0.00  0.00    +0.000 A 
ATOM     19  C16 RB1 A 933      29.730   1.364   6.386  0.00  0.00    +0.000 A 
ATOM     20  C15 RB1 A 933      29.253   0.071   6.578  0.00  0.00    +0.000 A 
ATOM     21  C14 RB1 A 933      28.331  -0.467   5.687  0.00  0.00    +0.000 A 
ATOM     22  O18 RB1 A 933      27.852  -1.727   5.881  0.00  0.00    +0.000 OA
ENDBRANCH  15  16
ENDBRANCH  10  15
TORSDOF 3
ENDMDL
MODEL 9
REMARK VINA RESULT:      -6.2      1.592      3.855
REMARK  Name = ligand_pdbs\RB1.pdb
REMARK  3 active torsions:
REMARK  status: ('A' for Active; 'I' for Inactive)
REMARK    1  A    between atoms: C19_2  and  N7_5
REMARK    2  A    between atoms: C9_14  and  C11_15
REMARK    3  A    between atoms: C11_15  and  C12_16
REMARK                            x       y       z     vdW  Elec       q    Type
REMARK                         _______ _______ _______ _____ _____    ______ ____
ROOT
ATOM      1  N7  RB1 A 933      28.575   1.968   5.163  0.00  0.00    +0.000 N 
ATOM      2  N8  RB1 A 933      27.985   3.008   4.861  0.00  0.00    +0.000 NA
ATOM      3  C3  RB1 A 933      28.146   0.925   4.451  0.00  0.00    +0.000 C 
ATOM      4  N2  RB1 A 933      28.471  -0.377   4.405  0.00  0.00    +0.000 NA
ATOM      5  C1  RB1 A 933      27.845  -1.195   3.569  0.00  0.00    +0.000 C 
ATOM      6  N6  RB1 A 933      26.898  -0.753   2.759  0.00  0.00    +0.000 NA
ATOM      7  C5  RB1 A 933      26.527   0.535   2.748  0.00  0.00    +0.000 C 
ATOM      8  N10 RB1 A 933      25.566   0.958   1.933  0.00  0.00    +0.000 NA
ATOM      9  C4  RB1 A 933      27.155   1.422   3.614  0.00  0.00    +0.000 C 
ATOM     10  C9  RB1 A 933      27.075   2.775   3.913  0.00  0.00    +0.000 C 
ENDROOT
BRANCH   1  12
ATOM     11  C20 RB1 A 933      29.435   3.031   7.202  0.00  0.00    +0.000 C 
ATOM     12  C19 RB1 A 933      29.653   1.903   6.189  0.00  0.00    +0.000 C 
ATOM     13  C21 RB1 A 933      31.014   2.072   5.509  0.00  0.00    +0.000 C 
ATOM     14  C22 RB1 A 933      29.585   0.547   6.901  0.00  0.00    +0.000 C 
ENDBRANCH   1  12
BRANCH  10  15
ATOM     15  C11 RB1 A 933      26.154   3.817   3.269  0.00  0.00    +0.000 C 
BRANCH  15  16
ATOM     16  C12 RB1 A 933      26.267   5.152   3.999  0.00  0.00    +0.000 A 
ATOM     17  C13 RB1 A 933      25.128   5.909   4.271  0.00  0.00    +0.000 A 
ATOM     18  C17 RB1 A 933      27.515   5.612   4.406  0.00  0.00    +0.000 A 
ATOM     19  C16 RB1 A 933      27.626   6.818   5.093  0.00  0.00    +0.000 A 
ATOM     20  C15 RB1 A 933      26.488   7.571   5.371  0.00  0.00    +0.000 A 
ATOM     21  C14 RB1 A 933      25.241   7.119   4.954  0.00  0.00    +0.000 A 
ATOM     22  O18 RB1 A 933      24.129   7.861   5.212  0.00  0.00    +0.000 OA
ENDBRANCH  15  16
ENDBRANCH  10  15
TORSDOF 3
ENDMDL
