MODEL 1
REMARK VINA RESULT:      -5.5      0.000      0.000
REMARK  Name = ligand_pdbs\RJA.pdb
REMARK  13 active torsions:
REMARK  status: ('A' for Active; 'I' for Inactive)
REMARK    1  A    between atoms: C1_1  and  C2_3
REMARK    2  A    between atoms: C2_3  and  C3_5
REMARK    3  A    between atoms: C3_5  and  C4_7
REMARK    4  A    between atoms: C4_7  and  C5_9
REMARK    5  A    between atoms: C5_9  and  C6_11
REMARK    6  A    between atoms: C7_12  and  C8_13
REMARK    7  A    between atoms: C9_14  and  C10_16
REMARK    8  A    between atoms: C10_16  and  C11_17
REMARK    9  A    between atoms: C11_17  and  C12_18
REMARK   10  A    between atoms: C13_19  and  C14_20
REMARK   11  A    between atoms: C15_21  and  C16_22
REMARK   12  A    between atoms: C16_22  and  C17_23
REMARK   13  A    between atoms: C21_27  and  C22_28
REMARK                            x       y       z     vdW  Elec       q    Type
REMARK                         _______ _______ _______ _____ _____    ______ ____
ROOT
ATOM      1  C12 RJA C1101      24.753   3.271   3.902  0.00  0.00    +0.000 C 
ATOM      2  C13 RJA C1101      24.240   2.088   4.226  0.00  0.00    +0.000 C 
ATOM      3  C27 RJA C1101      26.124   3.380   3.320  0.00  0.00    +0.000 C 
ENDROOT
BRANCH   2   4
ATOM      4  C14 RJA C1101      24.962   0.847   4.008  0.00  0.00    +0.000 C 
ATOM      5  C15 RJA C1101      25.631   0.353   5.034  0.00  0.00    +0.000 C 
BRANCH   5   7
ATOM      6  O3  RJA C1101      26.134  -1.584   3.686  0.00  0.00    +0.000 OA
ATOM      7  C16 RJA C1101      26.381  -0.944   4.942  0.00  0.00    +0.000 C 
BRANCH   7  10
ATOM      8  O4  RJA C1101      30.495  -0.457   2.765  0.00  0.00    +0.000 OA
ATOM      9  O5  RJA C1101      27.888   0.894   4.738  0.00  0.00    +0.000 OA
ATOM     10  C17 RJA C1101      27.830  -0.494   4.987  0.00  0.00    +0.000 C 
ATOM     11  C18 RJA C1101      28.674  -1.279   4.016  0.00  0.00    +0.000 C 
ATOM     12  C19 RJA C1101      30.115  -0.819   4.084  0.00  0.00    +0.000 C 
ATOM     13  C20 RJA C1101      30.272   0.417   4.942  0.00  0.00    +0.000 C 
ATOM     14  C21 RJA C1101      29.194   1.433   4.597  0.00  0.00    +0.000 C 
ATOM     15  C28 RJA C1101      30.302   0.082   6.421  0.00  0.00    +0.000 C 
BRANCH  14  16
ATOM     16  C22 RJA C1101      29.327   2.654   5.468  0.00  0.00    +0.000 C 
ATOM     17  C23 RJA C1101      28.256   3.093   6.100  0.00  0.00    +0.000 C 
ATOM     18  C24 RJA C1101      28.307   4.308   6.984  0.00  0.00    +0.000 C 
ENDBRANCH  14  16
ENDBRANCH   7  10
ENDBRANCH   5   7
ENDBRANCH   2   4
BRANCH   1  19
ATOM     19  C11 RJA C1101      23.928   4.508   4.121  0.00  0.00    +0.000 C 
BRANCH  19  20
ATOM     20  C10 RJA C1101      24.477   5.207   5.357  0.00  0.00    +0.000 C 
ATOM     21  C26 RJA C1101      24.734   4.214   6.475  0.00  0.00    +0.000 C 
BRANCH  20  23
ATOM     22  C8  RJA C1101      25.919   7.206   5.224  0.00  0.00    +0.000 C 
ATOM     23  C9  RJA C1101      25.766   5.899   5.027  0.00  0.00    +0.000 C 
ATOM     24  C25 RJA C1101      27.234   7.828   4.869  0.00  0.00    +0.000 C 
BRANCH  22  26
ATOM     25  C6  RJA C1101      25.093   9.036   6.576  0.00  0.00    +0.000 C 
ATOM     26  C7  RJA C1101      24.816   8.023   5.765  0.00  0.00    +0.000 C 
BRANCH  25  28
ATOM     27  O2  RJA C1101      24.069  11.197   6.486  0.00  0.00    +0.000 OA
ATOM     28  C5  RJA C1101      24.055   9.953   7.184  0.00  0.00    +0.000 C 
BRANCH  28  29
ATOM     29  C4  RJA C1101      24.262  10.194   8.672  0.00  0.00    +0.000 C 
BRANCH  29  30
ATOM     30  C3  RJA C1101      23.847  11.609   9.078  0.00  0.00    +0.000 C 
BRANCH  30  31
ATOM     31  C2  RJA C1101      24.508  11.949  10.410  0.00  0.00    +0.000 C 
BRANCH  31  32
ATOM     32  C1  RJA C1101      23.518  12.015  11.560  0.00  0.00    +0.000 C 
ATOM     33  O1  RJA C1101      23.392  13.076  12.203  0.00  0.00    +0.000 OA
ATOM     34  O1' RJA C1101      22.840  11.010  11.833  0.00  0.00    +0.000 OA
ENDBRANCH  31  32
ENDBRANCH  30  31
ENDBRANCH  29  30
ENDBRANCH  28  29
ENDBRANCH  25  28
ENDBRANCH  22  26
ENDBRANCH  20  23
ENDBRANCH  19  20
ENDBRANCH   1  19
TORSDOF 13
ENDMDL
MODEL 2
REMARK VINA RESULT:      -5.3      1.422      3.024
REMARK  Name = ligand_pdbs\RJA.pdb
REMARK  13 active torsions:
REMARK  status: ('A' for Active; 'I' for Inactive)
REMARK    1  A    between atoms: C1_1  and  C2_3
REMARK    2  A    between atoms: C2_3  and  C3_5
REMARK    3  A    between atoms: C3_5  and  C4_7
REMARK    4  A    between atoms: C4_7  and  C5_9
REMARK    5  A    between atoms: C5_9  and  C6_11
REMARK    6  A    between atoms: C7_12  and  C8_13
REMARK    7  A    between atoms: C9_14  and  C10_16
REMARK    8  A    between atoms: C10_16  and  C11_17
REMARK    9  A    between atoms: C11_17  and  C12_18
REMARK   10  A    between atoms: C13_19  and  C14_20
REMARK   11  A    between atoms: C15_21  and  C16_22
REMARK   12  A    between atoms: C16_22  and  C17_23
REMARK   13  A    between atoms: C21_27  and  C22_28
REMARK                            x       y       z     vdW  Elec       q    Type
REMARK                         _______ _______ _______ _____ _____    ______ ____
ROOT
ATOM      1  C12 RJA C1101      27.453   4.724   5.093  0.00  0.00    +0.000 C 
ATOM      2  C13 RJA C1101      28.210   4.099   5.990  0.00  0.00    +0.000 C 
ATOM      3  C27 RJA C1101      27.428   4.283   3.667  0.00  0.00    +0.000 C 
ENDROOT
BRANCH   2   4
ATOM      4  C14 RJA C1101      29.023   2.947   5.644  0.00  0.00    +0.000 C 
ATOM      5  C15 RJA C1101      28.818   1.839   6.332  0.00  0.00    +0.000 C 
BRANCH   5   7
ATOM      6  O3  RJA C1101      29.604  -0.273   7.194  0.00  0.00    +0.000 OA
ATOM      7  C16 RJA C1101      29.568   0.571   6.039  0.00  0.00    +0.000 C 
BRANCH   7  10
ATOM      8  O4  RJA C1101      27.310  -3.226   4.497  0.00  0.00    +0.000 OA
ATOM      9  O5  RJA C1101      27.354   0.237   5.215  0.00  0.00    +0.000 OA
ATOM     10  C17 RJA C1101      28.707  -0.087   4.976  0.00  0.00    +0.000 C 
ATOM     11  C18 RJA C1101      28.935  -1.576   4.938  0.00  0.00    +0.000 C 
ATOM     12  C19 RJA C1101      28.072  -2.209   3.866  0.00  0.00    +0.000 C 
ATOM     13  C20 RJA C1101      27.088  -1.222   3.278  0.00  0.00    +0.000 C 
ATOM     14  C21 RJA C1101      26.414  -0.432   4.389  0.00  0.00    +0.000 C 
ATOM     15  C28 RJA C1101      27.734  -0.326   2.239  0.00  0.00    +0.000 C 
BRANCH  14  16
ATOM     16  C22 RJA C1101      25.454   0.572   3.809  0.00  0.00    +0.000 C 
ATOM     17  C23 RJA C1101      25.051   1.568   4.574  0.00  0.00    +0.000 C 
ATOM     18  C24 RJA C1101      24.090   2.609   4.070  0.00  0.00    +0.000 C 
ENDBRANCH  14  16
ENDBRANCH   7  10
ENDBRANCH   5   7
ENDBRANCH   2   4
BRANCH   1  19
ATOM     19  C11 RJA C1101      26.607   5.885   5.536  0.00  0.00    +0.000 C 
BRANCH  19  20
ATOM     20  C10 RJA C1101      25.623   6.184   4.415  0.00  0.00    +0.000 C 
ATOM     21  C26 RJA C1101      24.201   6.249   4.941  0.00  0.00    +0.000 C 
BRANCH  20  23
ATOM     22  C8  RJA C1101      25.731   8.650   4.404  0.00  0.00    +0.000 C 
ATOM     23  C9  RJA C1101      25.955   7.500   3.775  0.00  0.00    +0.000 C 
ATOM     24  C25 RJA C1101      26.086   9.924   3.701  0.00  0.00    +0.000 C 
BRANCH  22  26
ATOM     25  C6  RJA C1101      24.553   9.779   6.191  0.00  0.00    +0.000 C 
ATOM     26  C7  RJA C1101      25.135   8.670   5.753  0.00  0.00    +0.000 C 
BRANCH  25  28
ATOM     27  O2  RJA C1101      23.067  11.084   7.540  0.00  0.00    +0.000 OA
ATOM     28  C5  RJA C1101      23.897   9.922   7.546  0.00  0.00    +0.000 C 
BRANCH  28  29
ATOM     29  C4  RJA C1101      24.894  10.007   8.693  0.00  0.00    +0.000 C 
BRANCH  29  30
ATOM     30  C3  RJA C1101      24.220  10.439   9.996  0.00  0.00    +0.000 C 
BRANCH  30  31
ATOM     31  C2  RJA C1101      24.579  11.896  10.272  0.00  0.00    +0.000 C 
BRANCH  31  32
ATOM     32  C1  RJA C1101      23.418  12.692  10.841  0.00  0.00    +0.000 C 
ATOM     33  O1  RJA C1101      23.408  12.984  12.054  0.00  0.00    +0.000 OA
ATOM     34  O1' RJA C1101      22.502  13.051  10.082  0.00  0.00    +0.000 OA
ENDBRANCH  31  32
ENDBRANCH  30  31
ENDBRANCH  29  30
ENDBRANCH  28  29
ENDBRANCH  25  28
ENDBRANCH  22  26
ENDBRANCH  20  23
ENDBRANCH  19  20
ENDBRANCH   1  19
TORSDOF 13
ENDMDL
MODEL 3
REMARK VINA RESULT:      -4.9      3.459      7.725
REMARK  Name = ligand_pdbs\RJA.pdb
REMARK  13 active torsions:
REMARK  status: ('A' for Active; 'I' for Inactive)
REMARK    1  A    between atoms: C1_1  and  C2_3
REMARK    2  A    between atoms: C2_3  and  C3_5
REMARK    3  A    between atoms: C3_5  and  C4_7
REMARK    4  A    between atoms: C4_7  and  C5_9
REMARK    5  A    between atoms: C5_9  and  C6_11
REMARK    6  A    between atoms: C7_12  and  C8_13
REMARK    7  A    between atoms: C9_14  and  C10_16
REMARK    8  A    between atoms: C10_16  and  C11_17
REMARK    9  A    between atoms: C11_17  and  C12_18
REMARK   10  A    between atoms: C13_19  and  C14_20
REMARK   11  A    between atoms: C15_21  and  C16_22
REMARK   12  A    between atoms: C16_22  and  C17_23
REMARK   13  A    between atoms: C21_27  and  C22_28
REMARK                            x       y       z     vdW  Elec       q    Type
REMARK                         _______ _______ _______ _____ _____    ______ ____
ROOT
ATOM      1  C12 RJA C1101      25.908   0.141   3.230  0.00  0.00    +0.000 C 
ATOM      2  C13 RJA C1101      24.663   0.562   3.425  0.00  0.00    +0.000 C 
ATOM      3  C27 RJA C1101      26.949   1.054   2.671  0.00  0.00    +0.000 C 
ENDROOT
BRANCH   2   4
ATOM      4  C14 RJA C1101      24.254   1.925   3.136  0.00  0.00    +0.000 C 
ATOM      5  C15 RJA C1101      24.141   2.748   4.163  0.00  0.00    +0.000 C 
BRANCH   5   7
ATOM      6  O3  RJA C1101      22.830   4.597   4.990  0.00  0.00    +0.000 OA
ATOM      7  C16 RJA C1101      23.766   4.191   3.986  0.00  0.00    +0.000 C 
BRANCH   7  10
ATOM      8  O4  RJA C1101      27.997   5.420   2.411  0.00  0.00    +0.000 OA
ATOM      9  O5  RJA C1101      24.918   6.279   3.927  0.00  0.00    +0.000 OA
ATOM     10  C17 RJA C1101      25.082   4.909   4.223  0.00  0.00    +0.000 C 
ATOM     11  C18 RJA C1101      26.193   4.285   3.417  0.00  0.00    +0.000 C 
ATOM     12  C19 RJA C1101      27.497   5.011   3.675  0.00  0.00    +0.000 C 
ATOM     13  C20 RJA C1101      27.291   6.266   4.494  0.00  0.00    +0.000 C 
ATOM     14  C21 RJA C1101      26.108   7.054   3.955  0.00  0.00    +0.000 C 
ATOM     15  C28 RJA C1101      27.160   5.962   5.975  0.00  0.00    +0.000 C 
BRANCH  14  16
ATOM     16  C22 RJA C1101      25.880   8.289   4.785  0.00  0.00    +0.000 C 
ATOM     17  C23 RJA C1101      24.880   8.291   5.645  0.00  0.00    +0.000 C 
ATOM     18  C24 RJA C1101      24.585   9.488   6.507  0.00  0.00    +0.000 C 
ENDBRANCH  14  16
ENDBRANCH   7  10
ENDBRANCH   5   7
ENDBRANCH   2   4
BRANCH   1  19
ATOM     19  C11 RJA C1101      26.265  -1.274   3.591  0.00  0.00    +0.000 C 
BRANCH  19  20
ATOM     20  C10 RJA C1101      27.361  -1.212   4.644  0.00  0.00    +0.000 C 
ATOM     21  C26 RJA C1101      26.863  -1.730   5.980  0.00  0.00    +0.000 C 
BRANCH  20  23
ATOM     22  C8  RJA C1101      29.689  -1.484   3.869  0.00  0.00    +0.000 C 
ATOM     23  C9  RJA C1101      28.534  -2.044   4.216  0.00  0.00    +0.000 C 
ATOM     24  C25 RJA C1101      30.815  -2.379   3.450  0.00  0.00    +0.000 C 
BRANCH  22  26
ATOM     25  C6  RJA C1101      29.984   0.614   5.039  0.00  0.00    +0.000 C 
ATOM     26  C7  RJA C1101      29.851  -0.017   3.880  0.00  0.00    +0.000 C 
BRANCH  25  28
ATOM     27  O2  RJA C1101      31.311   2.359   6.001  0.00  0.00    +0.000 OA
ATOM     28  C5  RJA C1101      30.169   2.108   5.182  0.00  0.00    +0.000 C 
BRANCH  28  29
ATOM     29  C4  RJA C1101      28.953   2.813   5.764  0.00  0.00    +0.000 C 
BRANCH  29  30
ATOM     30  C3  RJA C1101      28.028   1.836   6.491  0.00  0.00    +0.000 C 
BRANCH  30  31
ATOM     31  C2  RJA C1101      26.581   2.232   6.213  0.00  0.00    +0.000 C 
BRANCH  31  32
ATOM     32  C1  RJA C1101      26.004   3.147   7.279  0.00  0.00    +0.000 C 
ATOM     33  O1  RJA C1101      24.785   3.410   7.270  0.00  0.00    +0.000 OA
ATOM     34  O1' RJA C1101      26.759   3.609   8.152  0.00  0.00    +0.000 OA
ENDBRANCH  31  32
ENDBRANCH  30  31
ENDBRANCH  29  30
ENDBRANCH  28  29
ENDBRANCH  25  28
ENDBRANCH  22  26
ENDBRANCH  20  23
ENDBRANCH  19  20
ENDBRANCH   1  19
TORSDOF 13
ENDMDL
MODEL 4
REMARK VINA RESULT:      -4.7      2.753      8.700
REMARK  Name = ligand_pdbs\RJA.pdb
REMARK  13 active torsions:
REMARK  status: ('A' for Active; 'I' for Inactive)
REMARK    1  A    between atoms: C1_1  and  C2_3
REMARK    2  A    between atoms: C2_3  and  C3_5
REMARK    3  A    between atoms: C3_5  and  C4_7
REMARK    4  A    between atoms: C4_7  and  C5_9
REMARK    5  A    between atoms: C5_9  and  C6_11
REMARK    6  A    between atoms: C7_12  and  C8_13
REMARK    7  A    between atoms: C9_14  and  C10_16
REMARK    8  A    between atoms: C10_16  and  C11_17
REMARK    9  A    between atoms: C11_17  and  C12_18
REMARK   10  A    between atoms: C13_19  and  C14_20
REMARK   11  A    between atoms: C15_21  and  C16_22
REMARK   12  A    between atoms: C16_22  and  C17_23
REMARK   13  A    between atoms: C21_27  and  C22_28
REMARK                            x       y       z     vdW  Elec       q    Type
REMARK                         _______ _______ _______ _____ _____    ______ ____
ROOT
ATOM      1  C12 RJA C1101      25.711   0.294   3.920  0.00  0.00    +0.000 C 
ATOM      2  C13 RJA C1101      24.857   1.177   3.412  0.00  0.00    +0.000 C 
ATOM      3  C27 RJA C1101      26.026   0.281   5.380  0.00  0.00    +0.000 C 
ENDROOT
BRANCH   2   4
ATOM      4  C14 RJA C1101      24.169   2.150   4.241  0.00  0.00    +0.000 C 
ATOM      5  C15 RJA C1101      24.912   3.065   4.836  0.00  0.00    +0.000 C 
BRANCH   5   7
ATOM      6  O3  RJA C1101      24.536   3.888   7.073  0.00  0.00    +0.000 OA
ATOM      7  C16 RJA C1101      24.310   4.149   5.685  0.00  0.00    +0.000 C 
BRANCH   7  10
ATOM      8  O4  RJA C1101      25.423   7.301   2.410  0.00  0.00    +0.000 OA
ATOM      9  O5  RJA C1101      24.434   6.531   5.718  0.00  0.00    +0.000 OA
ATOM     10  C17 RJA C1101      25.111   5.373   5.278  0.00  0.00    +0.000 C 
ATOM     11  C18 RJA C1101      25.356   5.392   3.791  0.00  0.00    +0.000 C 
ATOM     12  C19 RJA C1101      26.162   6.616   3.410  0.00  0.00    +0.000 C 
ATOM     13  C20 RJA C1101      26.320   7.571   4.572  0.00  0.00    +0.000 C 
ATOM     14  C21 RJA C1101      24.987   7.762   5.277  0.00  0.00    +0.000 C 
ATOM     15  C28 RJA C1101      27.420   7.134   5.521  0.00  0.00    +0.000 C 
BRANCH  14  16
ATOM     16  C22 RJA C1101      25.143   8.689   6.453  0.00  0.00    +0.000 C 
ATOM     17  C23 RJA C1101      24.167   9.535   6.720  0.00  0.00    +0.000 C 
ATOM     18  C24 RJA C1101      24.250  10.495   7.873  0.00  0.00    +0.000 C 
ENDBRANCH  14  16
ENDBRANCH   7  10
ENDBRANCH   5   7
ENDBRANCH   2   4
BRANCH   1  19
ATOM     19  C11 RJA C1101      26.354  -0.709   3.003  0.00  0.00    +0.000 C 
BRANCH  19  20
ATOM     20  C10 RJA C1101      27.083  -1.720   3.875  0.00  0.00    +0.000 C 
ATOM     21  C26 RJA C1101      26.283  -3.003   4.007  0.00  0.00    +0.000 C 
BRANCH  20  23
ATOM     22  C8  RJA C1101      29.551  -1.678   3.865  0.00  0.00    +0.000 C 
ATOM     23  C9  RJA C1101      28.418  -2.050   3.276  0.00  0.00    +0.000 C 
ATOM     24  C25 RJA C1101      30.846  -2.041   3.206  0.00  0.00    +0.000 C 
BRANCH  22  26
ATOM     25  C6  RJA C1101      30.538  -0.098   5.411  0.00  0.00    +0.000 C 
ATOM     26  C7  RJA C1101      29.531  -0.915   5.128  0.00  0.00    +0.000 C 
BRANCH  25  28
ATOM     27  O2  RJA C1101      29.830   0.148   7.683  0.00  0.00    +0.000 OA
ATOM     28  C5  RJA C1101      30.628   0.746   6.662  0.00  0.00    +0.000 C 
BRANCH  28  29
ATOM     29  C4  RJA C1101      30.196   2.189   6.448  0.00  0.00    +0.000 C 
BRANCH  29  30
ATOM     30  C3  RJA C1101      28.677   2.309   6.310  0.00  0.00    +0.000 C 
BRANCH  30  31
ATOM     31  C2  RJA C1101      28.362   3.466   5.367  0.00  0.00    +0.000 C 
BRANCH  31  32
ATOM     32  C1  RJA C1101      28.274   3.035   3.913  0.00  0.00    +0.000 C 
ATOM     33  O1  RJA C1101      28.589   1.871   3.596  0.00  0.00    +0.000 OA
ATOM     34  O1' RJA C1101      27.876   3.851   3.065  0.00  0.00    +0.000 OA
ENDBRANCH  31  32
ENDBRANCH  30  31
ENDBRANCH  29  30
ENDBRANCH  28  29
ENDBRANCH  25  28
ENDBRANCH  22  26
ENDBRANCH  20  23
ENDBRANCH  19  20
ENDBRANCH   1  19
TORSDOF 13
ENDMDL
MODEL 5
REMARK VINA RESULT:      -4.7      1.607      3.429
REMARK  Name = ligand_pdbs\RJA.pdb
REMARK  13 active torsions:
REMARK  status: ('A' for Active; 'I' for Inactive)
REMARK    1  A    between atoms: C1_1  and  C2_3
REMARK    2  A    between atoms: C2_3  and  C3_5
REMARK    3  A    between atoms: C3_5  and  C4_7
REMARK    4  A    between atoms: C4_7  and  C5_9
REMARK    5  A    between atoms: C5_9  and  C6_11
REMARK    6  A    between atoms: C7_12  and  C8_13
REMARK    7  A    between atoms: C9_14  and  C10_16
REMARK    8  A    between atoms: C10_16  and  C11_17
REMARK    9  A    between atoms: C11_17  and  C12_18
REMARK   10  A    between atoms: C13_19  and  C14_20
REMARK   11  A    between atoms: C15_21  and  C16_22
REMARK   12  A    between atoms: C16_22  and  C17_23
REMARK   13  A    between atoms: C21_27  and  C22_28
REMARK                            x       y       z     vdW  Elec       q    Type
REMARK                         _______ _______ _______ _____ _____    ______ ____
ROOT
ATOM      1  C12 RJA C1101      28.051   4.075   4.998  0.00  0.00    +0.000 C 
ATOM      2  C13 RJA C1101      28.281   3.536   6.191  0.00  0.00    +0.000 C 
ATOM      3  C27 RJA C1101      28.104   3.246   3.757  0.00  0.00    +0.000 C 
ENDROOT
BRANCH   2   4
ATOM      4  C14 RJA C1101      28.565   2.121   6.358  0.00  0.00    +0.000 C 
ATOM      5  C15 RJA C1101      29.796   1.721   6.098  0.00  0.00    +0.000 C 
BRANCH   5   7
ATOM      6  O3  RJA C1101      29.654  -0.262   7.464  0.00  0.00    +0.000 OA
ATOM      7  C16 RJA C1101      30.221   0.292   6.273  0.00  0.00    +0.000 C 
BRANCH   7  10
ATOM      8  O4  RJA C1101      29.661  -3.580   3.706  0.00  0.00    +0.000 OA
ATOM      9  O5  RJA C1101      28.285  -0.796   5.399  0.00  0.00    +0.000 OA
ATOM     10  C17 RJA C1101      29.597  -0.390   5.069  0.00  0.00    +0.000 C 
ATOM     11  C18 RJA C1101      30.444  -1.545   4.598  0.00  0.00    +0.000 C 
ATOM     12  C19 RJA C1101      29.807  -2.204   3.393  0.00  0.00    +0.000 C 
ATOM     13  C20 RJA C1101      28.420  -1.664   3.123  0.00  0.00    +0.000 C 
ATOM     14  C21 RJA C1101      27.628  -1.585   4.419  0.00  0.00    +0.000 C 
ATOM     15  C28 RJA C1101      28.459  -0.339   2.385  0.00  0.00    +0.000 C 
BRANCH  14  16
ATOM     16  C22 RJA C1101      26.256  -1.022   4.161  0.00  0.00    +0.000 C 
ATOM     17  C23 RJA C1101      26.081   0.280   4.279  0.00  0.00    +0.000 C 
ATOM     18  C24 RJA C1101      24.740   0.919   4.042  0.00  0.00    +0.000 C 
ENDBRANCH  14  16
ENDBRANCH   7  10
ENDBRANCH   5   7
ENDBRANCH   2   4
BRANCH   1  19
ATOM     19  C11 RJA C1101      27.724   5.539   4.911  0.00  0.00    +0.000 C 
BRANCH  19  20
ATOM     20  C10 RJA C1101      26.691   5.709   3.806  0.00  0.00    +0.000 C 
ATOM     21  C26 RJA C1101      27.288   5.387   2.448  0.00  0.00    +0.000 C 
BRANCH  20  23
ATOM     22  C8  RJA C1101      24.322   5.271   4.344  0.00  0.00    +0.000 C 
ATOM     23  C9  RJA C1101      25.527   4.793   4.044  0.00  0.00    +0.000 C 
ATOM     24  C25 RJA C1101      23.208   4.296   4.571  0.00  0.00    +0.000 C 
BRANCH  22  26
ATOM     25  C6  RJA C1101      24.852   7.435   5.289  0.00  0.00    +0.000 C 
ATOM     26  C7  RJA C1101      24.094   6.724   4.465  0.00  0.00    +0.000 C 
BRANCH  25  28
ATOM     27  O2  RJA C1101      25.647   9.594   4.628  0.00  0.00    +0.000 OA
ATOM     28  C5  RJA C1101      24.726   8.929   5.492  0.00  0.00    +0.000 C 
BRANCH  28  29
ATOM     29  C4  RJA C1101      24.964   9.363   6.931  0.00  0.00    +0.000 C 
BRANCH  29  30
ATOM     30  C3  RJA C1101      23.737  10.062   7.520  0.00  0.00    +0.000 C 
BRANCH  30  31
ATOM     31  C2  RJA C1101      24.191  11.340   8.219  0.00  0.00    +0.000 C 
BRANCH  31  32
ATOM     32  C1  RJA C1101      24.022  11.281   9.726  0.00  0.00    +0.000 C 
ATOM     33  O1  RJA C1101      24.461  12.210  10.432  0.00  0.00    +0.000 OA
ATOM     34  O1' RJA C1101      23.436  10.308  10.231  0.00  0.00    +0.000 OA
ENDBRANCH  31  32
ENDBRANCH  30  31
ENDBRANCH  29  30
ENDBRANCH  28  29
ENDBRANCH  25  28
ENDBRANCH  22  26
ENDBRANCH  20  23
ENDBRANCH  19  20
ENDBRANCH   1  19
TORSDOF 13
ENDMDL
MODEL 6
REMARK VINA RESULT:      -2.8      3.420      8.308
REMARK  Name = ligand_pdbs\RJA.pdb
REMARK  13 active torsions:
REMARK  status: ('A' for Active; 'I' for Inactive)
REMARK    1  A    between atoms: C1_1  and  C2_3
REMARK    2  A    between atoms: C2_3  and  C3_5
REMARK    3  A    between atoms: C3_5  and  C4_7
REMARK    4  A    between atoms: C4_7  and  C5_9
REMARK    5  A    between atoms: C5_9  and  C6_11
REMARK    6  A    between atoms: C7_12  and  C8_13
REMARK    7  A    between atoms: C9_14  and  C10_16
REMARK    8  A    between atoms: C10_16  and  C11_17
REMARK    9  A    between atoms: C11_17  and  C12_18
REMARK   10  A    between atoms: C13_19  and  C14_20
REMARK   11  A    between atoms: C15_21  and  C16_22
REMARK   12  A    between atoms: C16_22  and  C17_23
REMARK   13  A    between atoms: C21_27  and  C22_28
REMARK                            x       y       z     vdW  Elec       q    Type
REMARK                         _______ _______ _______ _____ _____    ______ ____
ROOT
ATOM      1  C12 RJA C1101      25.533   0.227   3.530  0.00  0.00    +0.000 C 
ATOM      2  C13 RJA C1101      25.189   0.751   4.702  0.00  0.00    +0.000 C 
ATOM      3  C27 RJA C1101      25.642   1.080   2.309  0.00  0.00    +0.000 C 
ENDROOT
BRANCH   2   4
ATOM      4  C14 RJA C1101      24.931   2.171   4.867  0.00  0.00    +0.000 C 
ATOM      5  C15 RJA C1101      24.048   2.719   4.053  0.00  0.00    +0.000 C 
BRANCH   5   7
ATOM      6  O3  RJA C1101      22.887   4.406   5.329  0.00  0.00    +0.000 OA
ATOM      7  C16 RJA C1101      23.668   4.169   4.154  0.00  0.00    +0.000 C 
BRANCH   7  10
ATOM      8  O4  RJA C1101      27.720   5.520   2.245  0.00  0.00    +0.000 OA
ATOM      9  O5  RJA C1101      24.837   6.248   4.160  0.00  0.00    +0.000 OA
ATOM     10  C17 RJA C1101      25.013   4.855   4.310  0.00  0.00    +0.000 C 
ATOM     11  C18 RJA C1101      26.020   4.304   3.333  0.00  0.00    +0.000 C 
ATOM     12  C19 RJA C1101      27.355   4.998   3.512  0.00  0.00    +0.000 C 
ATOM     13  C20 RJA C1101      27.257   6.172   4.461  0.00  0.00    +0.000 C 
ATOM     14  C21 RJA C1101      26.034   7.011   4.130  0.00  0.00    +0.000 C 
ATOM     15  C28 RJA C1101      27.283   5.733   5.913  0.00  0.00    +0.000 C 
BRANCH  14  16
ATOM     16  C22 RJA C1101      25.915   8.166   5.089  0.00  0.00    +0.000 C 
ATOM     17  C23 RJA C1101      24.748   8.387   5.663  0.00  0.00    +0.000 C 
ATOM     18  C24 RJA C1101      24.548   9.521   6.629  0.00  0.00    +0.000 C 
ENDBRANCH  14  16
ENDBRANCH   7  10
ENDBRANCH   5   7
ENDBRANCH   2   4
BRANCH   1  19
ATOM     19  C11 RJA C1101      25.823  -1.245   3.447  0.00  0.00    +0.000 C 
BRANCH  19  20
ATOM     20  C10 RJA C1101      27.185  -1.476   4.084  0.00  0.00    +0.000 C 
ATOM     21  C26 RJA C1101      27.229  -2.810   4.808  0.00  0.00    +0.000 C 
BRANCH  20  23
ATOM     22  C8  RJA C1101      29.243  -0.581   3.056  0.00  0.00    +0.000 C 
ATOM     23  C9  RJA C1101      28.254  -1.470   3.031  0.00  0.00    +0.000 C 
ATOM     24  C25 RJA C1101      30.272  -0.634   1.969  0.00  0.00    +0.000 C 
BRANCH  22  26
ATOM     25  C6  RJA C1101      28.602   1.555   3.997  0.00  0.00    +0.000 C 
ATOM     26  C7  RJA C1101      29.314   0.442   4.117  0.00  0.00    +0.000 C 
BRANCH  25  28
ATOM     27  O2  RJA C1101      29.832   3.353   4.989  0.00  0.00    +0.000 OA
ATOM     28  C5  RJA C1101      28.580   2.669   5.020  0.00  0.00    +0.000 C 
BRANCH  28  29
ATOM     29  C4  RJA C1101      28.291   2.184   6.433  0.00  0.00    +0.000 C 
BRANCH  29  30
ATOM     30  C3  RJA C1101      29.562   2.132   7.283  0.00  0.00    +0.000 C 
BRANCH  30  31
ATOM     31  C2  RJA C1101      30.261   0.799   7.036  0.00  0.00    +0.000 C 
BRANCH  31  32
ATOM     32  C1  RJA C1101      31.725   0.959   6.665  0.00  0.00    +0.000 C 
ATOM     33  O1  RJA C1101      32.545   0.086   7.010  0.00  0.00    +0.000 OA
ATOM     34  O1' RJA C1101      32.077   1.956   6.012  0.00  0.00    +0.000 OA
ENDBRANCH  31  32
ENDBRANCH  30  31
ENDBRANCH  29  30
ENDBRANCH  28  29
ENDBRANCH  25  28
ENDBRANCH  22  26
ENDBRANCH  20  23
ENDBRANCH  19  20
ENDBRANCH   1  19
TORSDOF 13
ENDMDL
MODEL 7
REMARK VINA RESULT:      -2.6      1.391      2.144
REMARK  Name = ligand_pdbs\RJA.pdb
REMARK  13 active torsions:
REMARK  status: ('A' for Active; 'I' for Inactive)
REMARK    1  A    between atoms: C1_1  and  C2_3
REMARK    2  A    between atoms: C2_3  and  C3_5
REMARK    3  A    between atoms: C3_5  and  C4_7
REMARK    4  A    between atoms: C4_7  and  C5_9
REMARK    5  A    between atoms: C5_9  and  C6_11
REMARK    6  A    between atoms: C7_12  and  C8_13
REMARK    7  A    between atoms: C9_14  and  C10_16
REMARK    8  A    between atoms: C10_16  and  C11_17
REMARK    9  A    between atoms: C11_17  and  C12_18
REMARK   10  A    between atoms: C13_19  and  C14_20
REMARK   11  A    between atoms: C15_21  and  C16_22
REMARK   12  A    between atoms: C16_22  and  C17_23
REMARK   13  A    between atoms: C21_27  and  C22_28
REMARK                            x       y       z     vdW  Elec       q    Type
REMARK                         _______ _______ _______ _____ _____    ______ ____
ROOT
ATOM      1  C12 RJA C1101      24.452   3.670   4.963  0.00  0.00    +0.000 C 
ATOM      2  C13 RJA C1101      24.261   3.203   3.733  0.00  0.00    +0.000 C 
ATOM      3  C27 RJA C1101      24.987   2.790   6.045  0.00  0.00    +0.000 C 
ENDROOT
BRANCH   2   4
ATOM      4  C14 RJA C1101      24.584   1.835   3.368  0.00  0.00    +0.000 C 
ATOM      5  C15 RJA C1101      25.703   1.643   2.693  0.00  0.00    +0.000 C 
BRANCH   5   7
ATOM      6  O3  RJA C1101      27.150   0.349   1.261  0.00  0.00    +0.000 OA
ATOM      7  C16 RJA C1101      26.165   0.271   2.295  0.00  0.00    +0.000 C 
BRANCH   7  10
ATOM      8  O4  RJA C1101      27.968  -3.307   4.713  0.00  0.00    +0.000 OA
ATOM      9  O5  RJA C1101      28.213   0.003   3.490  0.00  0.00    +0.000 OA
ATOM     10  C17 RJA C1101      26.824  -0.240   3.564  0.00  0.00    +0.000 C 
ATOM     11  C18 RJA C1101      26.515  -1.698   3.787  0.00  0.00    +0.000 C 
ATOM     12  C19 RJA C1101      27.176  -2.183   5.061  0.00  0.00    +0.000 C 
ATOM     13  C20 RJA C1101      28.113  -1.146   5.640  0.00  0.00    +0.000 C 
ATOM     14  C21 RJA C1101      28.984  -0.558   4.541  0.00  0.00    +0.000 C 
ATOM     15  C28 RJA C1101      27.369  -0.081   6.423  0.00  0.00    +0.000 C 
BRANCH  14  16
ATOM     16  C22 RJA C1101      29.899   0.496   5.106  0.00  0.00    +0.000 C 
ATOM     17  C23 RJA C1101      29.571   1.763   4.947  0.00  0.00    +0.000 C 
ATOM     18  C24 RJA C1101      30.434   2.873   5.478  0.00  0.00    +0.000 C 
ENDBRANCH  14  16
ENDBRANCH   7  10
ENDBRANCH   5   7
ENDBRANCH   2   4
BRANCH   1  19
ATOM     19  C11 RJA C1101      24.130   5.109   5.255  0.00  0.00    +0.000 C 
BRANCH  19  20
ATOM     20  C10 RJA C1101      25.442   5.815   5.559  0.00  0.00    +0.000 C 
ATOM     21  C26 RJA C1101      26.607   4.844   5.512  0.00  0.00    +0.000 C 
BRANCH  20  23
ATOM     22  C8  RJA C1101      25.609   8.186   4.892  0.00  0.00    +0.000 C 
ATOM     23  C9  RJA C1101      25.687   6.903   4.554  0.00  0.00    +0.000 C 
ATOM     24  C25 RJA C1101      25.863   9.216   3.835  0.00  0.00    +0.000 C 
BRANCH  22  26
ATOM     25  C6  RJA C1101      24.704   9.768   6.485  0.00  0.00    +0.000 C 
ATOM     26  C7  RJA C1101      25.265   8.585   6.271  0.00  0.00    +0.000 C 
BRANCH  25  28
ATOM     27  O2  RJA C1101      23.124   9.591   8.274  0.00  0.00    +0.000 OA
ATOM     28  C5  RJA C1101      24.295  10.286   7.846  0.00  0.00    +0.000 C 
BRANCH  28  29
ATOM     29  C4  RJA C1101      24.041  11.786   7.869  0.00  0.00    +0.000 C 
BRANCH  29  30
ATOM     30  C3  RJA C1101      23.347  12.222   9.160  0.00  0.00    +0.000 C 
BRANCH  30  31
ATOM     31  C2  RJA C1101      24.226  11.829  10.344  0.00  0.00    +0.000 C 
BRANCH  31  32
ATOM     32  C1  RJA C1101      23.498  11.914  11.674  0.00  0.00    +0.000 C 
ATOM     33  O1  RJA C1101      22.748  10.983  12.025  0.00  0.00    +0.000 OA
ATOM     34  O1' RJA C1101      23.675  12.910  12.396  0.00  0.00    +0.000 OA
ENDBRANCH  31  32
ENDBRANCH  30  31
ENDBRANCH  29  30
ENDBRANCH  28  29
ENDBRANCH  25  28
ENDBRANCH  22  26
ENDBRANCH  20  23
ENDBRANCH  19  20
ENDBRANCH   1  19
TORSDOF 13
ENDMDL
