MODEL 1
REMARK VINA RESULT:      -6.8      0.000      0.000
REMARK  Name = ligand_pdbs\RLJ.pdb
REMARK  8 active torsions:
REMARK  status: ('A' for Active; 'I' for Inactive)
REMARK    1  A    between atoms: C3_5  and  C8_11
REMARK    2  A    between atoms: C4_7  and  C7_10
REMARK    3  A    between atoms: C5_8  and  N9_13
REMARK    4  A    between atoms: C10_14  and  C11_16
REMARK    5  A    between atoms: C11_16  and  C13_19
REMARK    6  A    between atoms: C13_19  and  O14_20
REMARK    7  A    between atoms: O14_20  and  C16_21
REMARK    8  A    between atoms: C19_24  and  C22_27
REMARK                            x       y       z     vdW  Elec       q    Type
REMARK                         _______ _______ _______ _____ _____    ______ ____
ROOT
ATOM      1  N9  RLJ A   1      25.633   5.626   5.158  0.00  0.00    +0.000 NA
ATOM      2  C10 RLJ A   1      26.275   6.788   5.246  0.00  0.00    +0.000 C 
ATOM      3  O10 RLJ A   1      27.483   6.912   5.447  0.00  0.00    +0.000 OA
ENDROOT
BRANCH   1   8
ATOM      4  C1  RLJ A   1      26.895   4.139   6.422  0.00  0.00    +0.000 A 
ATOM      5  C2  RLJ A   1      27.521   2.906   6.565  0.00  0.00    +0.000 A 
ATOM      6  C3  RLJ A   1      27.467   1.963   5.545  0.00  0.00    +0.000 A 
ATOM      7  C4  RLJ A   1      26.779   2.242   4.364  0.00  0.00    +0.000 A 
ATOM      8  C5  RLJ A   1      26.206   4.429   5.251  0.00  0.00    +0.000 A 
ATOM      9  C6  RLJ A   1      26.151   3.479   4.235  0.00  0.00    +0.000 A 
BRANCH   7  13
ATOM     10  F1  RLJ A   1      26.083   0.146   3.543  0.00  0.00    +0.000 F 
ATOM     11  F2  RLJ A   1      26.063   1.803   2.177  0.00  0.00    +0.000 F 
ATOM     12  F3  RLJ A   1      27.933   0.893   2.765  0.00  0.00    +0.000 F 
ATOM     13  C7  RLJ A   1      26.726   1.254   3.189  0.00  0.00    +0.000 C 
ENDBRANCH   7  13
BRANCH   6  14
ATOM     14  C8  RLJ A   1      28.160   0.730   5.758  0.00  0.00    +0.000 C 
ATOM     15  N8  RLJ A   1      28.712  -0.248   5.945  0.00  0.00    +0.000 NA
ENDBRANCH   6  14
ENDBRANCH   1   8
BRANCH   2  16
ATOM     16  C11 RLJ A   1      25.362   8.009   5.104  0.00  0.00    +0.000 C 
ATOM     17  O11 RLJ A   1      24.073   7.578   4.661  0.00  0.00    +0.000 OA
ATOM     18  C12 RLJ A   1      25.969   9.010   4.118  0.00  0.00    +0.000 C 
BRANCH  16  19
ATOM     19  C13 RLJ A   1      25.218   8.667   6.466  0.00  0.00    +0.000 C 
BRANCH  19  20
ATOM     20  O14 RLJ A   1      24.346   9.794   6.301  0.00  0.00    +0.000 OA
BRANCH  20  21
ATOM     21  C16 RLJ A   1      24.176  10.475   7.465  0.00  0.00    +0.000 A 
ATOM     22  C17 RLJ A   1      24.354   9.796   8.665  0.00  0.00    +0.000 A 
ATOM     23  C18 RLJ A   1      24.189  10.463   9.873  0.00  0.00    +0.000 A 
ATOM     24  C19 RLJ A   1      23.844  11.811   9.883  0.00  0.00    +0.000 A 
ATOM     25  C20 RLJ A   1      23.668  12.494   8.684  0.00  0.00    +0.000 A 
ATOM     26  C21 RLJ A   1      23.836  11.825   7.476  0.00  0.00    +0.000 A 
BRANCH  24  27
ATOM     27  C22 RLJ A   1      23.653  12.474  11.137  0.00  0.00    +0.000 C 
ATOM     28  N22 RLJ A   1      23.509  12.991  12.140  0.00  0.00    +0.000 NA
ENDBRANCH  24  27
ENDBRANCH  20  21
ENDBRANCH  19  20
ENDBRANCH  16  19
ENDBRANCH   2  16
TORSDOF 8
ENDMDL
MODEL 2
REMARK VINA RESULT:      -6.5      1.846      2.508
REMARK  Name = ligand_pdbs\RLJ.pdb
REMARK  8 active torsions:
REMARK  status: ('A' for Active; 'I' for Inactive)
REMARK    1  A    between atoms: C3_5  and  C8_11
REMARK    2  A    between atoms: C4_7  and  C7_10
REMARK    3  A    between atoms: C5_8  and  N9_13
REMARK    4  A    between atoms: C10_14  and  C11_16
REMARK    5  A    between atoms: C11_16  and  C13_19
REMARK    6  A    between atoms: C13_19  and  O14_20
REMARK    7  A    between atoms: O14_20  and  C16_21
REMARK    8  A    between atoms: C19_24  and  C22_27
REMARK                            x       y       z     vdW  Elec       q    Type
REMARK                         _______ _______ _______ _____ _____    ______ ____
ROOT
ATOM      1  N9  RLJ A   1      25.997   5.759   4.532  0.00  0.00    +0.000 NA
ATOM      2  C10 RLJ A   1      26.410   6.900   5.079  0.00  0.00    +0.000 C 
ATOM      3  O10 RLJ A   1      27.512   7.072   5.599  0.00  0.00    +0.000 OA
ENDROOT
BRANCH   1   8
ATOM      4  C1  RLJ A   1      26.442   3.781   3.396  0.00  0.00    +0.000 A 
ATOM      5  C2  RLJ A   1      27.163   2.600   3.268  0.00  0.00    +0.000 A 
ATOM      6  C3  RLJ A   1      28.158   2.276   4.183  0.00  0.00    +0.000 A 
ATOM      7  C4  RLJ A   1      28.447   3.136   5.242  0.00  0.00    +0.000 A 
ATOM      8  C5  RLJ A   1      26.721   4.647   4.446  0.00  0.00    +0.000 A 
ATOM      9  C6  RLJ A   1      27.722   4.319   5.357  0.00  0.00    +0.000 A 
BRANCH   7  13
ATOM     10  F1  RLJ A   1      29.483   3.710   7.280  0.00  0.00    +0.000 F 
ATOM     11  F2  RLJ A   1      29.236   1.620   6.845  0.00  0.00    +0.000 F 
ATOM     12  F3  RLJ A   1      30.740   2.781   5.815  0.00  0.00    +0.000 F 
ATOM     13  C7  RLJ A   1      29.505   2.805   6.306  0.00  0.00    +0.000 C 
ENDBRANCH   7  13
BRANCH   6  14
ATOM     14  C8  RLJ A   1      28.835   1.029   3.997  0.00  0.00    +0.000 C 
ATOM     15  N8  RLJ A   1      29.387   0.044   3.856  0.00  0.00    +0.000 NA
ENDBRANCH   6  14
ENDBRANCH   1   8
BRANCH   2  16
ATOM     16  C11 RLJ A   1      25.365   8.016   5.040  0.00  0.00    +0.000 C 
ATOM     17  O11 RLJ A   1      24.094   7.454   4.703  0.00  0.00    +0.000 OA
ATOM     18  C12 RLJ A   1      25.772   9.086   4.025  0.00  0.00    +0.000 C 
BRANCH  16  19
ATOM     19  C13 RLJ A   1      25.273   8.643   6.422  0.00  0.00    +0.000 C 
BRANCH  19  20
ATOM     20  O14 RLJ A   1      24.381   9.761   6.322  0.00  0.00    +0.000 OA
BRANCH  20  21
ATOM     21  C16 RLJ A   1      24.226  10.392   7.517  0.00  0.00    +0.000 A 
ATOM     22  C17 RLJ A   1      23.841  11.727   7.520  0.00  0.00    +0.000 A 
ATOM     23  C18 RLJ A   1      23.673  12.401   8.723  0.00  0.00    +0.000 A 
ATOM     24  C19 RLJ A   1      23.891  11.739   9.927  0.00  0.00    +0.000 A 
ATOM     25  C20 RLJ A   1      24.274  10.401   9.928  0.00  0.00    +0.000 A 
ATOM     26  C21 RLJ A   1      24.440   9.728   8.722  0.00  0.00    +0.000 A 
BRANCH  24  27
ATOM     27  C22 RLJ A   1      23.738  12.457  11.156  0.00  0.00    +0.000 C 
ATOM     28  N22 RLJ A   1      23.616  13.016  12.140  0.00  0.00    +0.000 NA
ENDBRANCH  24  27
ENDBRANCH  20  21
ENDBRANCH  19  20
ENDBRANCH  16  19
ENDBRANCH   2  16
TORSDOF 8
ENDMDL
MODEL 3
REMARK VINA RESULT:      -6.1      0.661      1.367
REMARK  Name = ligand_pdbs\RLJ.pdb
REMARK  8 active torsions:
REMARK  status: ('A' for Active; 'I' for Inactive)
REMARK    1  A    between atoms: C3_5  and  C8_11
REMARK    2  A    between atoms: C4_7  and  C7_10
REMARK    3  A    between atoms: C5_8  and  N9_13
REMARK    4  A    between atoms: C10_14  and  C11_16
REMARK    5  A    between atoms: C11_16  and  C13_19
REMARK    6  A    between atoms: C13_19  and  O14_20
REMARK    7  A    between atoms: O14_20  and  C16_21
REMARK    8  A    between atoms: C19_24  and  C22_27
REMARK                            x       y       z     vdW  Elec       q    Type
REMARK                         _______ _______ _______ _____ _____    ______ ____
ROOT
ATOM      1  N9  RLJ A   1      25.785   5.591   4.917  0.00  0.00    +0.000 NA
ATOM      2  C10 RLJ A   1      26.345   6.765   5.203  0.00  0.00    +0.000 C 
ATOM      3  O10 RLJ A   1      27.513   6.920   5.556  0.00  0.00    +0.000 OA
ENDROOT
BRANCH   1   8
ATOM      4  C1  RLJ A   1      27.666   4.380   5.546  0.00  0.00    +0.000 A 
ATOM      5  C2  RLJ A   1      28.368   3.181   5.595  0.00  0.00    +0.000 A 
ATOM      6  C3  RLJ A   1      27.828   2.023   5.047  0.00  0.00    +0.000 A 
ATOM      7  C4  RLJ A   1      26.571   2.049   4.445  0.00  0.00    +0.000 A 
ATOM      8  C5  RLJ A   1      26.412   4.419   4.949  0.00  0.00    +0.000 A 
ATOM      9  C6  RLJ A   1      25.875   3.254   4.406  0.00  0.00    +0.000 A 
BRANCH   7  13
ATOM     10  F1  RLJ A   1      26.628   0.474   2.692  0.00  0.00    +0.000 F 
ATOM     11  F2  RLJ A   1      26.005  -0.217   4.629  0.00  0.00    +0.000 F 
ATOM     12  F3  RLJ A   1      24.684   0.997   3.424  0.00  0.00    +0.000 F 
ATOM     13  C7  RLJ A   1      25.949   0.809   3.786  0.00  0.00    +0.000 C 
ENDBRANCH   7  13
BRANCH   6  14
ATOM     14  C8  RLJ A   1      28.626   0.837   5.114  0.00  0.00    +0.000 C 
ATOM     15  N8  RLJ A   1      29.263  -0.104   5.183  0.00  0.00    +0.000 NA
ENDBRANCH   6  14
ENDBRANCH   1   8
BRANCH   2  16
ATOM     16  C11 RLJ A   1      25.384   7.950   5.085  0.00  0.00    +0.000 C 
ATOM     17  O11 RLJ A   1      24.094   7.469   4.704  0.00  0.00    +0.000 OA
ATOM     18  C12 RLJ A   1      25.913   8.958   4.063  0.00  0.00    +0.000 C 
BRANCH  16  19
ATOM     19  C13 RLJ A   1      25.275   8.622   6.444  0.00  0.00    +0.000 C 
BRANCH  19  20
ATOM     20  O14 RLJ A   1      24.340   9.701   6.309  0.00  0.00    +0.000 OA
BRANCH  20  21
ATOM     21  C16 RLJ A   1      24.168  10.369   7.481  0.00  0.00    +0.000 A 
ATOM     22  C17 RLJ A   1      23.787  11.705   7.437  0.00  0.00    +0.000 A 
ATOM     23  C18 RLJ A   1      23.602  12.416   8.616  0.00  0.00    +0.000 A 
ATOM     24  C19 RLJ A   1      23.798  11.791   9.843  0.00  0.00    +0.000 A 
ATOM     25  C20 RLJ A   1      24.176  10.454   9.892  0.00  0.00    +0.000 A 
ATOM     26  C21 RLJ A   1      24.360   9.743   8.710  0.00  0.00    +0.000 A 
BRANCH  24  27
ATOM     27  C22 RLJ A   1      23.627  12.547  11.047  0.00  0.00    +0.000 C 
ATOM     28  N22 RLJ A   1      23.486  13.138  12.009  0.00  0.00    +0.000 NA
ENDBRANCH  24  27
ENDBRANCH  20  21
ENDBRANCH  19  20
ENDBRANCH  16  19
ENDBRANCH   2  16
TORSDOF 8
ENDMDL
MODEL 4
REMARK VINA RESULT:      -5.8      4.070      6.689
REMARK  Name = ligand_pdbs\RLJ.pdb
REMARK  8 active torsions:
REMARK  status: ('A' for Active; 'I' for Inactive)
REMARK    1  A    between atoms: C3_5  and  C8_11
REMARK    2  A    between atoms: C4_7  and  C7_10
REMARK    3  A    between atoms: C5_8  and  N9_13
REMARK    4  A    between atoms: C10_14  and  C11_16
REMARK    5  A    between atoms: C11_16  and  C13_19
REMARK    6  A    between atoms: C13_19  and  O14_20
REMARK    7  A    between atoms: O14_20  and  C16_21
REMARK    8  A    between atoms: C19_24  and  C22_27
REMARK                            x       y       z     vdW  Elec       q    Type
REMARK                         _______ _______ _______ _____ _____    ______ ____
ROOT
ATOM      1  N9  RLJ A   1      27.045   4.646   5.406  0.00  0.00    +0.000 NA
ATOM      2  C10 RLJ A   1      26.836   5.344   4.292  0.00  0.00    +0.000 C 
ATOM      3  O10 RLJ A   1      27.514   5.255   3.269  0.00  0.00    +0.000 OA
ENDROOT
BRANCH   1   8
ATOM      4  C1  RLJ A   1      28.823   3.862   6.681  0.00  0.00    +0.000 A 
ATOM      5  C2  RLJ A   1      29.844   2.943   6.891  0.00  0.00    +0.000 A 
ATOM      6  C3  RLJ A   1      30.053   1.901   5.994  0.00  0.00    +0.000 A 
ATOM      7  C4  RLJ A   1      29.235   1.763   4.874  0.00  0.00    +0.000 A 
ATOM      8  C5  RLJ A   1      28.001   3.735   5.568  0.00  0.00    +0.000 A 
ATOM      9  C6  RLJ A   1      28.212   2.687   4.677  0.00  0.00    +0.000 A 
BRANCH   7  13
ATOM     10  F1  RLJ A   1      29.513  -0.533   4.419  0.00  0.00    +0.000 F 
ATOM     11  F2  RLJ A   1      28.424   0.639   2.984  0.00  0.00    +0.000 F 
ATOM     12  F3  RLJ A   1      30.573   0.815   3.135  0.00  0.00    +0.000 F 
ATOM     13  C7  RLJ A   1      29.450   0.657   3.829  0.00  0.00    +0.000 C 
ENDBRANCH   7  13
BRANCH   6  14
ATOM     14  C8  RLJ A   1      31.142   1.014   6.267  0.00  0.00    +0.000 C 
ATOM     15  N8  RLJ A   1      32.009   0.314   6.499  0.00  0.00    +0.000 NA
ENDBRANCH   6  14
ENDBRANCH   1   8
BRANCH   2  16
ATOM     16  C11 RLJ A   1      25.665   6.324   4.390  0.00  0.00    +0.000 C 
ATOM     17  O11 RLJ A   1      25.250   6.688   3.071  0.00  0.00    +0.000 OA
ATOM     18  C12 RLJ A   1      26.077   7.561   5.190  0.00  0.00    +0.000 C 
BRANCH  16  19
ATOM     19  C13 RLJ A   1      24.510   5.630   5.093  0.00  0.00    +0.000 C 
BRANCH  19  20
ATOM     20  O14 RLJ A   1      23.926   4.719   4.151  0.00  0.00    +0.000 OA
BRANCH  20  21
ATOM     21  C16 RLJ A   1      24.436   3.465   4.280  0.00  0.00    +0.000 A 
ATOM     22  C17 RLJ A   1      24.533   2.913   5.552  0.00  0.00    +0.000 A 
ATOM     23  C18 RLJ A   1      25.048   1.634   5.718  0.00  0.00    +0.000 A 
ATOM     24  C19 RLJ A   1      25.470   0.904   4.612  0.00  0.00    +0.000 A 
ATOM     25  C20 RLJ A   1      25.371   1.452   3.337  0.00  0.00    +0.000 A 
ATOM     26  C21 RLJ A   1      24.853   2.732   3.172  0.00  0.00    +0.000 A 
BRANCH  24  27
ATOM     27  C22 RLJ A   1      26.022  -0.403   4.806  0.00  0.00    +0.000 C 
ATOM     28  N22 RLJ A   1      26.458  -1.440   4.973  0.00  0.00    +0.000 NA
ENDBRANCH  24  27
ENDBRANCH  20  21
ENDBRANCH  19  20
ENDBRANCH  16  19
ENDBRANCH   2  16
TORSDOF 8
ENDMDL
MODEL 5
REMARK VINA RESULT:      -5.6      5.718      8.892
REMARK  Name = ligand_pdbs\RLJ.pdb
REMARK  8 active torsions:
REMARK  status: ('A' for Active; 'I' for Inactive)
REMARK    1  A    between atoms: C3_5  and  C8_11
REMARK    2  A    between atoms: C4_7  and  C7_10
REMARK    3  A    between atoms: C5_8  and  N9_13
REMARK    4  A    between atoms: C10_14  and  C11_16
REMARK    5  A    between atoms: C11_16  and  C13_19
REMARK    6  A    between atoms: C13_19  and  O14_20
REMARK    7  A    between atoms: O14_20  and  C16_21
REMARK    8  A    between atoms: C19_24  and  C22_27
REMARK                            x       y       z     vdW  Elec       q    Type
REMARK                         _______ _______ _______ _____ _____    ______ ____
ROOT
ATOM      1  N9  RLJ A   1      26.495   0.298   3.327  0.00  0.00    +0.000 NA
ATOM      2  C10 RLJ A   1      26.553  -0.721   4.181  0.00  0.00    +0.000 C 
ATOM      3  O10 RLJ A   1      26.187  -0.678   5.355  0.00  0.00    +0.000 OA
ENDROOT
BRANCH   1   8
ATOM      4  C1  RLJ A   1      24.686   1.583   4.017  0.00  0.00    +0.000 A 
ATOM      5  C2  RLJ A   1      24.130   2.822   4.314  0.00  0.00    +0.000 A 
ATOM      6  C3  RLJ A   1      24.888   3.982   4.204  0.00  0.00    +0.000 A 
ATOM      7  C4  RLJ A   1      26.220   3.916   3.796  0.00  0.00    +0.000 A 
ATOM      8  C5  RLJ A   1      26.012   1.504   3.610  0.00  0.00    +0.000 A 
ATOM      9  C6  RLJ A   1      26.768   2.669   3.506  0.00  0.00    +0.000 A 
BRANCH   7  13
ATOM     10  F1  RLJ A   1      28.199   4.875   2.948  0.00  0.00    +0.000 F 
ATOM     11  F2  RLJ A   1      26.418   6.075   2.907  0.00  0.00    +0.000 F 
ATOM     12  F3  RLJ A   1      27.453   5.717   4.771  0.00  0.00    +0.000 F 
ATOM     13  C7  RLJ A   1      27.087   5.171   3.615  0.00  0.00    +0.000 C 
ENDBRANCH   7  13
BRANCH   6  14
ATOM     14  C8  RLJ A   1      24.233   5.220   4.501  0.00  0.00    +0.000 C 
ATOM     15  N8  RLJ A   1      23.707   6.204   4.721  0.00  0.00    +0.000 NA
ENDBRANCH   6  14
ENDBRANCH   1   8
BRANCH   2  16
ATOM     16  C11 RLJ A   1      27.159  -1.993   3.583  0.00  0.00    +0.000 C 
ATOM     17  O11 RLJ A   1      27.559  -1.730   2.235  0.00  0.00    +0.000 OA
ATOM     18  C12 RLJ A   1      26.145  -3.137   3.635  0.00  0.00    +0.000 C 
BRANCH  16  19
ATOM     19  C13 RLJ A   1      28.388  -2.372   4.393  0.00  0.00    +0.000 C 
BRANCH  19  20
ATOM     20  O14 RLJ A   1      29.459  -1.521   3.962  0.00  0.00    +0.000 OA
BRANCH  20  21
ATOM     21  C16 RLJ A   1      29.461  -0.336   4.629  0.00  0.00    +0.000 A 
ATOM     22  C17 RLJ A   1      29.210  -0.341   5.996  0.00  0.00    +0.000 A 
ATOM     23  C18 RLJ A   1      29.206   0.853   6.708  0.00  0.00    +0.000 A 
ATOM     24  C19 RLJ A   1      29.453   2.055   6.052  0.00  0.00    +0.000 A 
ATOM     25  C20 RLJ A   1      29.707   2.063   4.685  0.00  0.00    +0.000 A 
ATOM     26  C21 RLJ A   1      29.713   0.867   3.974  0.00  0.00    +0.000 A 
BRANCH  24  27
ATOM     27  C22 RLJ A   1      29.419   3.276   6.797  0.00  0.00    +0.000 C 
ATOM     28  N22 RLJ A   1      29.381   4.244   7.395  0.00  0.00    +0.000 NA
ENDBRANCH  24  27
ENDBRANCH  20  21
ENDBRANCH  19  20
ENDBRANCH  16  19
ENDBRANCH   2  16
TORSDOF 8
ENDMDL
MODEL 6
REMARK VINA RESULT:      -5.0      1.786      2.363
REMARK  Name = ligand_pdbs\RLJ.pdb
REMARK  8 active torsions:
REMARK  status: ('A' for Active; 'I' for Inactive)
REMARK    1  A    between atoms: C3_5  and  C8_11
REMARK    2  A    between atoms: C4_7  and  C7_10
REMARK    3  A    between atoms: C5_8  and  N9_13
REMARK    4  A    between atoms: C10_14  and  C11_16
REMARK    5  A    between atoms: C11_16  and  C13_19
REMARK    6  A    between atoms: C13_19  and  O14_20
REMARK    7  A    between atoms: O14_20  and  C16_21
REMARK    8  A    between atoms: C19_24  and  C22_27
REMARK                            x       y       z     vdW  Elec       q    Type
REMARK                         _______ _______ _______ _____ _____    ______ ____
ROOT
ATOM      1  N9  RLJ A   1      26.537   5.208   4.166  0.00  0.00    +0.000 NA
ATOM      2  C10 RLJ A   1      25.612   5.836   4.888  0.00  0.00    +0.000 C 
ATOM      3  O10 RLJ A   1      24.711   5.279   5.516  0.00  0.00    +0.000 OA
ENDROOT
BRANCH   1   8
ATOM      4  C1  RLJ A   1      25.475   3.184   3.743  0.00  0.00    +0.000 A 
ATOM      5  C2  RLJ A   1      25.524   1.801   3.607  0.00  0.00    +0.000 A 
ATOM      6  C3  RLJ A   1      26.723   1.117   3.766  0.00  0.00    +0.000 A 
ATOM      7  C4  RLJ A   1      27.896   1.812   4.061  0.00  0.00    +0.000 A 
ATOM      8  C5  RLJ A   1      26.637   3.887   4.035  0.00  0.00    +0.000 A 
ATOM      9  C6  RLJ A   1      27.836   3.197   4.189  0.00  0.00    +0.000 A 
BRANCH   7  13
ATOM     10  F1  RLJ A   1      29.585   0.403   3.213  0.00  0.00    +0.000 F 
ATOM     11  F2  RLJ A   1      30.187   2.004   4.513  0.00  0.00    +0.000 F 
ATOM     12  F3  RLJ A   1      29.204   0.254   5.316  0.00  0.00    +0.000 F 
ATOM     13  C7  RLJ A   1      29.238   1.100   4.291  0.00  0.00    +0.000 C 
ENDBRANCH   7  13
BRANCH   6  14
ATOM     14  C8  RLJ A   1      26.684  -0.308   3.639  0.00  0.00    +0.000 C 
ATOM     15  N8  RLJ A   1      26.665  -1.440   3.525  0.00  0.00    +0.000 NA
ENDBRANCH   6  14
ENDBRANCH   1   8
BRANCH   2  16
ATOM     16  C11 RLJ A   1      25.736   7.361   4.857  0.00  0.00    +0.000 C 
ATOM     17  O11 RLJ A   1      25.341   7.834   3.567  0.00  0.00    +0.000 OA
ATOM     18  C12 RLJ A   1      27.174   7.780   5.173  0.00  0.00    +0.000 C 
BRANCH  16  19
ATOM     19  C13 RLJ A   1      24.800   7.945   5.902  0.00  0.00    +0.000 C 
BRANCH  19  20
ATOM     20  O14 RLJ A   1      24.801   9.368   5.723  0.00  0.00    +0.000 OA
BRANCH  20  21
ATOM     21  C16 RLJ A   1      24.513  10.022   6.881  0.00  0.00    +0.000 A 
ATOM     22  C17 RLJ A   1      23.872  11.253   6.808  0.00  0.00    +0.000 A 
ATOM     23  C18 RLJ A   1      23.563  11.947   7.971  0.00  0.00    +0.000 A 
ATOM     24  C19 RLJ A   1      23.895  11.410   9.211  0.00  0.00    +0.000 A 
ATOM     25  C20 RLJ A   1      24.534  10.177   9.288  0.00  0.00    +0.000 A 
ATOM     26  C21 RLJ A   1      24.842   9.483   8.122  0.00  0.00    +0.000 A 
BRANCH  24  27
ATOM     27  C22 RLJ A   1      23.592  12.151  10.397  0.00  0.00    +0.000 C 
ATOM     28  N22 RLJ A   1      23.362  12.739  11.344  0.00  0.00    +0.000 NA
ENDBRANCH  24  27
ENDBRANCH  20  21
ENDBRANCH  19  20
ENDBRANCH  16  19
ENDBRANCH   2  16
TORSDOF 8
ENDMDL
MODEL 7
REMARK VINA RESULT:      -5.0      5.308      8.551
REMARK  Name = ligand_pdbs\RLJ.pdb
REMARK  8 active torsions:
REMARK  status: ('A' for Active; 'I' for Inactive)
REMARK    1  A    between atoms: C3_5  and  C8_11
REMARK    2  A    between atoms: C4_7  and  C7_10
REMARK    3  A    between atoms: C5_8  and  N9_13
REMARK    4  A    between atoms: C10_14  and  C11_16
REMARK    5  A    between atoms: C11_16  and  C13_19
REMARK    6  A    between atoms: C13_19  and  O14_20
REMARK    7  A    between atoms: O14_20  and  C16_21
REMARK    8  A    between atoms: C19_24  and  C22_27
REMARK                            x       y       z     vdW  Elec       q    Type
REMARK                         _______ _______ _______ _____ _____    ______ ____
ROOT
ATOM      1  N9  RLJ A   1      27.470   1.304   3.018  0.00  0.00    +0.000 NA
ATOM      2  C10 RLJ A   1      26.924   0.143   3.373  0.00  0.00    +0.000 C 
ATOM      3  O10 RLJ A   1      25.916   0.023   4.068  0.00  0.00    +0.000 OA
ENDROOT
BRANCH   1   8
ATOM      4  C1  RLJ A   1      27.858   3.585   3.242  0.00  0.00    +0.000 A 
ATOM      5  C2  RLJ A   1      27.412   4.857   3.580  0.00  0.00    +0.000 A 
ATOM      6  C3  RLJ A   1      26.109   5.055   4.022  0.00  0.00    +0.000 A 
ATOM      7  C4  RLJ A   1      25.231   3.977   4.128  0.00  0.00    +0.000 A 
ATOM      8  C5  RLJ A   1      26.993   2.503   3.343  0.00  0.00    +0.000 A 
ATOM      9  C6  RLJ A   1      25.687   2.708   3.782  0.00  0.00    +0.000 A 
BRANCH   7  13
ATOM     10  F1  RLJ A   1      23.091   3.031   4.418  0.00  0.00    +0.000 F 
ATOM     11  F2  RLJ A   1      23.823   4.326   5.968  0.00  0.00    +0.000 F 
ATOM     12  F3  RLJ A   1      23.147   5.146   4.086  0.00  0.00    +0.000 F 
ATOM     13  C7  RLJ A   1      23.796   4.134   4.653  0.00  0.00    +0.000 C 
ENDBRANCH   7  13
BRANCH   6  14
ATOM     14  C8  RLJ A   1      25.736   6.390   4.377  0.00  0.00    +0.000 C 
ATOM     15  N8  RLJ A   1      25.449   7.451   4.674  0.00  0.00    +0.000 NA
ENDBRANCH   6  14
ENDBRANCH   1   8
BRANCH   2  16
ATOM     16  C11 RLJ A   1      27.688  -1.079   2.858  0.00  0.00    +0.000 C 
ATOM     17  O11 RLJ A   1      27.403  -1.257   1.469  0.00  0.00    +0.000 OA
ATOM     18  C12 RLJ A   1      27.294  -2.323   3.657  0.00  0.00    +0.000 C 
BRANCH  16  19
ATOM     19  C13 RLJ A   1      29.177  -0.825   3.025  0.00  0.00    +0.000 C 
BRANCH  19  20
ATOM     20  O14 RLJ A   1      29.491  -1.038   4.408  0.00  0.00    +0.000 OA
BRANCH  20  21
ATOM     21  C16 RLJ A   1      29.427   0.117   5.123  0.00  0.00    +0.000 A 
ATOM     22  C17 RLJ A   1      30.304   1.148   4.803  0.00  0.00    +0.000 A 
ATOM     23  C18 RLJ A   1      30.263   2.341   5.514  0.00  0.00    +0.000 A 
ATOM     24  C19 RLJ A   1      29.347   2.506   6.547  0.00  0.00    +0.000 A 
ATOM     25  C20 RLJ A   1      28.466   1.478   6.868  0.00  0.00    +0.000 A 
ATOM     26  C21 RLJ A   1      28.506   0.284   6.154  0.00  0.00    +0.000 A 
BRANCH  24  27
ATOM     27  C22 RLJ A   1      29.338   3.733   7.284  0.00  0.00    +0.000 C 
ATOM     28  N22 RLJ A   1      29.318   4.708   7.869  0.00  0.00    +0.000 NA
ENDBRANCH  24  27
ENDBRANCH  20  21
ENDBRANCH  19  20
ENDBRANCH  16  19
ENDBRANCH   2  16
TORSDOF 8
ENDMDL
MODEL 8
REMARK VINA RESULT:      -5.0      4.881      9.130
REMARK  Name = ligand_pdbs\RLJ.pdb
REMARK  8 active torsions:
REMARK  status: ('A' for Active; 'I' for Inactive)
REMARK    1  A    between atoms: C3_5  and  C8_11
REMARK    2  A    between atoms: C4_7  and  C7_10
REMARK    3  A    between atoms: C5_8  and  N9_13
REMARK    4  A    between atoms: C10_14  and  C11_16
REMARK    5  A    between atoms: C11_16  and  C13_19
REMARK    6  A    between atoms: C13_19  and  O14_20
REMARK    7  A    between atoms: O14_20  and  C16_21
REMARK    8  A    between atoms: C19_24  and  C22_27
REMARK                            x       y       z     vdW  Elec       q    Type
REMARK                         _______ _______ _______ _____ _____    ______ ____
ROOT
ATOM      1  N9  RLJ A   1      28.494   1.953   6.177  0.00  0.00    +0.000 NA
ATOM      2  C10 RLJ A   1      29.798   1.823   5.949  0.00  0.00    +0.000 C 
ATOM      3  O10 RLJ A   1      30.507   2.672   5.410  0.00  0.00    +0.000 OA
ENDROOT
BRANCH   1   8
ATOM      4  C1  RLJ A   1      28.406   4.262   5.928  0.00  0.00    +0.000 A 
ATOM      5  C2  RLJ A   1      27.691   5.417   5.634  0.00  0.00    +0.000 A 
ATOM      6  C3  RLJ A   1      26.345   5.349   5.293  0.00  0.00    +0.000 A 
ATOM      7  C4  RLJ A   1      25.695   4.116   5.238  0.00  0.00    +0.000 A 
ATOM      8  C5  RLJ A   1      27.770   3.028   5.876  0.00  0.00    +0.000 A 
ATOM      9  C6  RLJ A   1      26.423   2.965   5.530  0.00  0.00    +0.000 A 
BRANCH   7  13
ATOM     10  F1  RLJ A   1      23.823   2.714   4.950  0.00  0.00    +0.000 F 
ATOM     11  F2  RLJ A   1      23.489   4.651   5.818  0.00  0.00    +0.000 F 
ATOM     12  F3  RLJ A   1      23.894   4.455   3.704  0.00  0.00    +0.000 F 
ATOM     13  C7  RLJ A   1      24.200   3.988   4.911  0.00  0.00    +0.000 C 
ENDBRANCH   7  13
BRANCH   6  14
ATOM     14  C8  RLJ A   1      25.674   6.585   5.032  0.00  0.00    +0.000 C 
ATOM     15  N8  RLJ A   1      25.152   7.577   4.834  0.00  0.00    +0.000 NA
ENDBRANCH   6  14
ENDBRANCH   1   8
BRANCH   2  16
ATOM     16  C11 RLJ A   1      30.371   0.476   6.397  0.00  0.00    +0.000 C 
ATOM     17  O11 RLJ A   1      29.442  -0.154   7.282  0.00  0.00    +0.000 OA
ATOM     18  C12 RLJ A   1      31.724   0.678   7.082  0.00  0.00    +0.000 C 
BRANCH  16  19
ATOM     19  C13 RLJ A   1      30.554  -0.404   5.171  0.00  0.00    +0.000 C 
BRANCH  19  20
ATOM     20  O14 RLJ A   1      29.457  -1.328   5.145  0.00  0.00    +0.000 OA
BRANCH  20  21
ATOM     21  C16 RLJ A   1      28.362  -0.794   4.540  0.00  0.00    +0.000 A 
ATOM     22  C17 RLJ A   1      28.535  -0.089   3.354  0.00  0.00    +0.000 A 
ATOM     23  C18 RLJ A   1      27.437   0.468   2.709  0.00  0.00    +0.000 A 
ATOM     24  C19 RLJ A   1      26.164   0.322   3.250  0.00  0.00    +0.000 A 
ATOM     25  C20 RLJ A   1      25.987  -0.386   4.435  0.00  0.00    +0.000 A 
ATOM     26  C21 RLJ A   1      27.087  -0.944   5.078  0.00  0.00    +0.000 A 
BRANCH  24  27
ATOM     27  C22 RLJ A   1      25.049   0.925   2.585  0.00  0.00    +0.000 C 
ATOM     28  N22 RLJ A   1      24.170   1.405   2.045  0.00  0.00    +0.000 NA
ENDBRANCH  24  27
ENDBRANCH  20  21
ENDBRANCH  19  20
ENDBRANCH  16  19
ENDBRANCH   2  16
TORSDOF 8
ENDMDL
MODEL 9
REMARK VINA RESULT:      -4.3      5.181      9.153
REMARK  Name = ligand_pdbs\RLJ.pdb
REMARK  8 active torsions:
REMARK  status: ('A' for Active; 'I' for Inactive)
REMARK    1  A    between atoms: C3_5  and  C8_11
REMARK    2  A    between atoms: C4_7  and  C7_10
REMARK    3  A    between atoms: C5_8  and  N9_13
REMARK    4  A    between atoms: C10_14  and  C11_16
REMARK    5  A    between atoms: C11_16  and  C13_19
REMARK    6  A    between atoms: C13_19  and  O14_20
REMARK    7  A    between atoms: O14_20  and  C16_21
REMARK    8  A    between atoms: C19_24  and  C22_27
REMARK                            x       y       z     vdW  Elec       q    Type
REMARK                         _______ _______ _______ _____ _____    ______ ____
ROOT
ATOM      1  N9  RLJ A   1      28.382   1.632   6.258  0.00  0.00    +0.000 NA
ATOM      2  C10 RLJ A   1      29.701   1.668   6.082  0.00  0.00    +0.000 C 
ATOM      3  O10 RLJ A   1      30.321   2.615   5.601  0.00  0.00    +0.000 OA
ENDROOT
BRANCH   1   8
ATOM      4  C1  RLJ A   1      26.336   2.665   6.646  0.00  0.00    +0.000 A 
ATOM      5  C2  RLJ A   1      25.422   3.674   6.366  0.00  0.00    +0.000 A 
ATOM      6  C3  RLJ A   1      25.706   4.639   5.405  0.00  0.00    +0.000 A 
ATOM      7  C4  RLJ A   1      26.915   4.607   4.713  0.00  0.00    +0.000 A 
ATOM      8  C5  RLJ A   1      27.545   2.623   5.963  0.00  0.00    +0.000 A 
ATOM      9  C6  RLJ A   1      27.825   3.595   5.005  0.00  0.00    +0.000 A 
BRANCH   7  13
ATOM     10  F1  RLJ A   1      26.220   5.796   2.800  0.00  0.00    +0.000 F 
ATOM     11  F2  RLJ A   1      27.546   6.796   4.163  0.00  0.00    +0.000 F 
ATOM     12  F3  RLJ A   1      28.287   5.239   2.860  0.00  0.00    +0.000 F 
ATOM     13  C7  RLJ A   1      27.259   5.621   3.611  0.00  0.00    +0.000 C 
ENDBRANCH   7  13
BRANCH   6  14
ATOM     14  C8  RLJ A   1      24.701   5.627   5.156  0.00  0.00    +0.000 C 
ATOM     15  N8  RLJ A   1      23.904   6.410   4.942  0.00  0.00    +0.000 NA
ENDBRANCH   6  14
ENDBRANCH   1   8
BRANCH   2  16
ATOM     16  C11 RLJ A   1      30.414   0.384   6.510  0.00  0.00    +0.000 C 
ATOM     17  O11 RLJ A   1      29.570  -0.343   7.405  0.00  0.00    +0.000 OA
ATOM     18  C12 RLJ A   1      31.751   0.719   7.175  0.00  0.00    +0.000 C 
BRANCH  16  19
ATOM     19  C13 RLJ A   1      30.665  -0.466   5.275  0.00  0.00    +0.000 C 
BRANCH  19  20
ATOM     20  O14 RLJ A   1      29.587  -1.407   5.182  0.00  0.00    +0.000 OA
BRANCH  20  21
ATOM     21  C16 RLJ A   1      28.483  -0.854   4.610  0.00  0.00    +0.000 A 
ATOM     22  C17 RLJ A   1      28.642  -0.082   3.466  0.00  0.00    +0.000 A 
ATOM     23  C18 RLJ A   1      27.535   0.496   2.857  0.00  0.00    +0.000 A 
ATOM     24  C19 RLJ A   1      26.266   0.303   3.393  0.00  0.00    +0.000 A 
ATOM     25  C20 RLJ A   1      26.103  -0.472   4.536  0.00  0.00    +0.000 A 
ATOM     26  C21 RLJ A   1      27.212  -1.051   5.144  0.00  0.00    +0.000 A 
BRANCH  24  27
ATOM     27  C22 RLJ A   1      25.140   0.928   2.766  0.00  0.00    +0.000 C 
ATOM     28  N22 RLJ A   1      24.241   1.412   2.265  0.00  0.00    +0.000 NA
ENDBRANCH  24  27
ENDBRANCH  20  21
ENDBRANCH  19  20
ENDBRANCH  16  19
ENDBRANCH   2  16
TORSDOF 8
ENDMDL
