MODEL 1
REMARK VINA RESULT:      -6.6      0.000      0.000
REMARK  Name = ligand_pdbs\SAH.pdb
REMARK  7 active torsions:
REMARK  status: ('A' for Active; 'I' for Inactive)
REMARK    1  A    between atoms: CA_2  and  CB_3
REMARK    2  A    between atoms: CA_2  and  C_6
REMARK    3  A    between atoms: CB_3  and  CG_4
REMARK    4  A    between atoms: CG_4  and  SD_5
REMARK    5  A    between atoms: SD_5  and  C5'_9
REMARK    6  A    between atoms: C5'_9  and  C4'_10
REMARK    7  A    between atoms: C1'_16  and  N9_17
REMARK                            x       y       z     vdW  Elec       q    Type
REMARK                         _______ _______ _______ _____ _____    ______ ____
ROOT
ATOM      1  C4' SAH A 701      28.326  -0.356   3.222  0.00  0.00    +0.000 C 
ATOM      2  O4' SAH A 701      28.525   1.058   3.328  0.00  0.00    +0.000 OA
ATOM      3  C3' SAH A 701      28.883  -0.986   4.488  0.00  0.00    +0.000 C 
ATOM      4  O3' SAH A 701      30.072  -1.702   4.144  0.00  0.00    +0.000 OA
ATOM      5  C2' SAH A 701      29.198   0.182   5.403  0.00  0.00    +0.000 C 
ATOM      6  O2' SAH A 701      30.408  -0.026   6.132  0.00  0.00    +0.000 OA
ATOM      7  C1' SAH A 701      29.331   1.366   4.465  0.00  0.00    +0.000 C 
ENDROOT
BRANCH   7   8
ATOM      8  N9  SAH A 701      28.864   2.622   5.095  0.00  0.00    +0.000 N 
ATOM      9  C8  SAH A 701      29.003   2.965   6.389  0.00  0.00    +0.000 C 
ATOM     10  N7  SAH A 701      28.457   4.184   6.634  0.00  0.00    +0.000 NA
ATOM     11  C5  SAH A 701      27.950   4.641   5.476  0.00  0.00    +0.000 C 
ATOM     12  C6  SAH A 701      27.237   5.860   5.024  0.00  0.00    +0.000 C 
ATOM     13  N6  SAH A 701      26.950   6.862   5.884  0.00  0.00    +0.000 NA
ATOM     14  N1  SAH A 701      26.878   5.941   3.721  0.00  0.00    +0.000 NA
ATOM     15  C2  SAH A 701      27.158   4.952   2.846  0.00  0.00    +0.000 C 
ATOM     16  N3  SAH A 701      27.807   3.819   3.190  0.00  0.00    +0.000 NA
ATOM     17  C4  SAH A 701      28.221   3.605   4.465  0.00  0.00    +0.000 C 
ENDBRANCH   7   8
BRANCH   1  18
ATOM     18  C5' SAH A 701      26.844  -0.676   3.024  0.00  0.00    +0.000 C 
BRANCH  18  19
ATOM     19  SD  SAH A 701      25.904   0.799   2.792  0.00  0.00    +0.000 S 
BRANCH  19  20
ATOM     20  CG  SAH A 701      25.375   1.143   4.442  0.00  0.00    +0.000 C 
BRANCH  20  21
ATOM     21  CB  SAH A 701      24.239   2.168   4.412  0.00  0.00    +0.000 C 
BRANCH  21  23
ATOM     22  N   SAH A 701      24.746   3.483   6.482  0.00  0.00    +0.000 NA
ATOM     23  CA  SAH A 701      24.594   3.540   4.995  0.00  0.00    +0.000 C 
BRANCH  23  24
ATOM     24  C   SAH A 701      23.556   4.559   4.611  0.00  0.00    +0.000 C 
ATOM     25  O   SAH A 701      23.798   5.769   4.633  0.00  0.00    +0.000 OA
ATOM     26  OXT SAH A 701      22.430   4.195   4.268  0.00  0.00    +0.000 OA
ENDBRANCH  23  24
ENDBRANCH  21  23
ENDBRANCH  20  21
ENDBRANCH  19  20
ENDBRANCH  18  19
ENDBRANCH   1  18
TORSDOF 7
ENDMDL
MODEL 2
REMARK VINA RESULT:      -6.3      4.270      6.708
REMARK  Name = ligand_pdbs\SAH.pdb
REMARK  7 active torsions:
REMARK  status: ('A' for Active; 'I' for Inactive)
REMARK    1  A    between atoms: CA_2  and  CB_3
REMARK    2  A    between atoms: CA_2  and  C_6
REMARK    3  A    between atoms: CB_3  and  CG_4
REMARK    4  A    between atoms: CG_4  and  SD_5
REMARK    5  A    between atoms: SD_5  and  C5'_9
REMARK    6  A    between atoms: C5'_9  and  C4'_10
REMARK    7  A    between atoms: C1'_16  and  N9_17
REMARK                            x       y       z     vdW  Elec       q    Type
REMARK                         _______ _______ _______ _____ _____    ______ ____
ROOT
ATOM      1  C4' SAH A 701      25.361   6.003   4.283  0.00  0.00    +0.000 C 
ATOM      2  O4' SAH A 701      26.481   5.134   4.079  0.00  0.00    +0.000 OA
ATOM      3  C3' SAH A 701      24.328   5.230   5.084  0.00  0.00    +0.000 C 
ATOM      4  O3' SAH A 701      23.222   4.940   4.226  0.00  0.00    +0.000 OA
ATOM      5  C2' SAH A 701      25.034   3.956   5.510  0.00  0.00    +0.000 C 
ATOM      6  O2' SAH A 701      24.165   2.824   5.455  0.00  0.00    +0.000 OA
ATOM      7  C1' SAH A 701      26.173   3.811   4.519  0.00  0.00    +0.000 C 
ENDROOT
BRANCH   7   8
ATOM      8  N9  SAH A 701      27.365   3.189   5.138  0.00  0.00    +0.000 N 
ATOM      9  C8  SAH A 701      28.420   3.837   5.666  0.00  0.00    +0.000 C 
ATOM     10  N7  SAH A 701      29.342   2.964   6.145  0.00  0.00    +0.000 NA
ATOM     11  C5  SAH A 701      28.879   1.722   5.921  0.00  0.00    +0.000 C 
ATOM     12  C6  SAH A 701      29.349   0.338   6.176  0.00  0.00    +0.000 C 
ATOM     13  N6  SAH A 701      30.533   0.103   6.784  0.00  0.00    +0.000 NA
ATOM     14  N1  SAH A 701      28.559  -0.686   5.778  0.00  0.00    +0.000 NA
ATOM     15  C2  SAH A 701      27.372  -0.471   5.172  0.00  0.00    +0.000 C 
ATOM     16  N3  SAH A 701      26.883   0.760   4.914  0.00  0.00    +0.000 NA
ATOM     17  C4  SAH A 701      27.575   1.877   5.255  0.00  0.00    +0.000 C 
ENDBRANCH   7   8
BRANCH   1  18
ATOM     18  C5' SAH A 701      25.799   7.284   4.991  0.00  0.00    +0.000 C 
BRANCH  18  19
ATOM     19  SD  SAH A 701      24.408   8.299   5.381  0.00  0.00    +0.000 S 
BRANCH  19  20
ATOM     20  CG  SAH A 701      25.046   9.278   6.706  0.00  0.00    +0.000 C 
BRANCH  20  21
ATOM     21  CB  SAH A 701      23.914  10.101   7.326  0.00  0.00    +0.000 C 
BRANCH  21  23
ATOM     22  N   SAH A 701      23.757  10.177   9.824  0.00  0.00    +0.000 NA
ATOM     23  CA  SAH A 701      24.294  10.857   8.603  0.00  0.00    +0.000 C 
BRANCH  23  24
ATOM     24  C   SAH A 701      23.807  12.279   8.537  0.00  0.00    +0.000 C 
ATOM     25  O   SAH A 701      23.377  12.862   9.536  0.00  0.00    +0.000 OA
ATOM     26  OXT SAH A 701      23.827  12.890   7.467  0.00  0.00    +0.000 OA
ENDBRANCH  23  24
ENDBRANCH  21  23
ENDBRANCH  20  21
ENDBRANCH  19  20
ENDBRANCH  18  19
ENDBRANCH   1  18
TORSDOF 7
ENDMDL
MODEL 3
REMARK VINA RESULT:      -6.2      2.575      6.298
REMARK  Name = ligand_pdbs\SAH.pdb
REMARK  7 active torsions:
REMARK  status: ('A' for Active; 'I' for Inactive)
REMARK    1  A    between atoms: CA_2  and  CB_3
REMARK    2  A    between atoms: CA_2  and  C_6
REMARK    3  A    between atoms: CB_3  and  CG_4
REMARK    4  A    between atoms: CG_4  and  SD_5
REMARK    5  A    between atoms: SD_5  and  C5'_9
REMARK    6  A    between atoms: C5'_9  and  C4'_10
REMARK    7  A    between atoms: C1'_16  and  N9_17
REMARK                            x       y       z     vdW  Elec       q    Type
REMARK                         _______ _______ _______ _____ _____    ______ ____
ROOT
ATOM      1  C4' SAH A 701      25.430   4.401   4.082  0.00  0.00    +0.000 C 
ATOM      2  O4' SAH A 701      26.360   3.646   3.296  0.00  0.00    +0.000 OA
ATOM      3  C3' SAH A 701      24.523   3.408   4.788  0.00  0.00    +0.000 C 
ATOM      4  O3' SAH A 701      23.222   3.494   4.199  0.00  0.00    +0.000 OA
ATOM      5  C2' SAH A 701      25.148   2.050   4.527  0.00  0.00    +0.000 C 
ATOM      6  O2' SAH A 701      24.159   1.047   4.293  0.00  0.00    +0.000 OA
ATOM      7  C1' SAH A 701      26.003   2.263   3.293  0.00  0.00    +0.000 C 
ENDROOT
BRANCH   7   8
ATOM      8  N9  SAH A 701      27.221   1.422   3.315  0.00  0.00    +0.000 N 
ATOM      9  C8  SAH A 701      28.479   1.833   3.070  0.00  0.00    +0.000 C 
ATOM     10  N7  SAH A 701      29.359   0.805   3.169  0.00  0.00    +0.000 NA
ATOM     11  C5  SAH A 701      28.658  -0.299   3.481  0.00  0.00    +0.000 C 
ATOM     12  C6  SAH A 701      28.963  -1.729   3.734  0.00  0.00    +0.000 C 
ATOM     13  N6  SAH A 701      30.229  -2.195   3.672  0.00  0.00    +0.000 NA
ATOM     14  N1  SAH A 701      27.933  -2.557   4.028  0.00  0.00    +0.000 NA
ATOM     15  C2  SAH A 701      26.661  -2.109   4.097  0.00  0.00    +0.000 C 
ATOM     16  N3  SAH A 701      26.315  -0.822   3.883  0.00  0.00    +0.000 NA
ATOM     17  C4  SAH A 701      27.247   0.115   3.574  0.00  0.00    +0.000 C 
ENDBRANCH   7   8
BRANCH   1  18
ATOM     18  C5' SAH A 701      26.171   5.305   5.067  0.00  0.00    +0.000 C 
BRANCH  18  19
ATOM     19  SD  SAH A 701      27.874   4.856   5.180  0.00  0.00    +0.000 S 
BRANCH  19  20
ATOM     20  CG  SAH A 701      27.879   3.866   6.644  0.00  0.00    +0.000 C 
BRANCH  20  21
ATOM     21  CB  SAH A 701      28.345   2.448   6.301  0.00  0.00    +0.000 C 
BRANCH  21  23
ATOM     22  N   SAH A 701      30.753   2.769   5.693  0.00  0.00    +0.000 NA
ATOM     23  CA  SAH A 701      29.802   2.144   6.665  0.00  0.00    +0.000 C 
BRANCH  23  24
ATOM     24  C   SAH A 701      30.026   0.658   6.739  0.00  0.00    +0.000 C 
ATOM     25  O   SAH A 701      29.089  -0.130   6.896  0.00  0.00    +0.000 OA
ATOM     26  OXT SAH A 701      31.166   0.200   6.646  0.00  0.00    +0.000 OA
ENDBRANCH  23  24
ENDBRANCH  21  23
ENDBRANCH  20  21
ENDBRANCH  19  20
ENDBRANCH  18  19
ENDBRANCH   1  18
TORSDOF 7
ENDMDL
MODEL 4
REMARK VINA RESULT:      -6.0      2.111      3.960
REMARK  Name = ligand_pdbs\SAH.pdb
REMARK  7 active torsions:
REMARK  status: ('A' for Active; 'I' for Inactive)
REMARK    1  A    between atoms: CA_2  and  CB_3
REMARK    2  A    between atoms: CA_2  and  C_6
REMARK    3  A    between atoms: CB_3  and  CG_4
REMARK    4  A    between atoms: CG_4  and  SD_5
REMARK    5  A    between atoms: SD_5  and  C5'_9
REMARK    6  A    between atoms: C5'_9  and  C4'_10
REMARK    7  A    between atoms: C1'_16  and  N9_17
REMARK                            x       y       z     vdW  Elec       q    Type
REMARK                         _______ _______ _______ _____ _____    ______ ____
ROOT
ATOM      1  C4' SAH A 701      28.738  -0.295   5.757  0.00  0.00    +0.000 C 
ATOM      2  O4' SAH A 701      27.321  -0.093   5.688  0.00  0.00    +0.000 OA
ATOM      3  C3' SAH A 701      29.255  -0.354   4.329  0.00  0.00    +0.000 C 
ATOM      4  O3' SAH A 701      29.650  -1.700   4.053  0.00  0.00    +0.000 OA
ATOM      5  C2' SAH A 701      28.076   0.054   3.466  0.00  0.00    +0.000 C 
ATOM      6  O2' SAH A 701      28.009  -0.711   2.263  0.00  0.00    +0.000 OA
ATOM      7  C1' SAH A 701      26.865  -0.207   4.340  0.00  0.00    +0.000 C 
ENDROOT
BRANCH   7   8
ATOM      8  N9  SAH A 701      25.780   0.768   4.084  0.00  0.00    +0.000 N 
ATOM      9  C8  SAH A 701      24.935   0.764   3.038  0.00  0.00    +0.000 C 
ATOM     10  N7  SAH A 701      24.064   1.803   3.107  0.00  0.00    +0.000 NA
ATOM     11  C5  SAH A 701      24.353   2.500   4.220  0.00  0.00    +0.000 C 
ATOM     12  C6  SAH A 701      23.825   3.710   4.896  0.00  0.00    +0.000 C 
ATOM     13  N6  SAH A 701      22.785   4.401   4.381  0.00  0.00    +0.000 NA
ATOM     14  N1  SAH A 701      24.418   4.105   6.047  0.00  0.00    +0.000 NA
ATOM     15  C2  SAH A 701      25.457   3.426   6.579  0.00  0.00    +0.000 C 
ATOM     16  N3  SAH A 701      25.983   2.316   6.019  0.00  0.00    +0.000 NA
ATOM     17  C4  SAH A 701      25.487   1.812   4.860  0.00  0.00    +0.000 C 
ENDBRANCH   7   8
BRANCH   1  18
ATOM     18  C5' SAH A 701      29.400   0.822   6.563  0.00  0.00    +0.000 C 
BRANCH  18  19
ATOM     19  SD  SAH A 701      30.119   2.031   5.498  0.00  0.00    +0.000 S 
BRANCH  19  20
ATOM     20  CG  SAH A 701      29.024   3.398   5.726  0.00  0.00    +0.000 C 
BRANCH  20  21
ATOM     21  CB  SAH A 701      28.454   3.830   4.373  0.00  0.00    +0.000 C 
BRANCH  21  23
ATOM     22  N   SAH A 701      27.721   5.828   5.693  0.00  0.00    +0.000 NA
ATOM     23  CA  SAH A 701      27.944   5.274   4.320  0.00  0.00    +0.000 C 
BRANCH  23  24
ATOM     24  C   SAH A 701      26.680   5.356   3.508  0.00  0.00    +0.000 C 
ATOM     25  O   SAH A 701      25.874   6.278   3.659  0.00  0.00    +0.000 OA
ATOM     26  OXT SAH A 701      26.426   4.488   2.672  0.00  0.00    +0.000 OA
ENDBRANCH  23  24
ENDBRANCH  21  23
ENDBRANCH  20  21
ENDBRANCH  19  20
ENDBRANCH  18  19
ENDBRANCH   1  18
TORSDOF 7
ENDMDL
MODEL 5
REMARK VINA RESULT:      -5.7      1.771      2.743
REMARK  Name = ligand_pdbs\SAH.pdb
REMARK  7 active torsions:
REMARK  status: ('A' for Active; 'I' for Inactive)
REMARK    1  A    between atoms: CA_2  and  CB_3
REMARK    2  A    between atoms: CA_2  and  C_6
REMARK    3  A    between atoms: CB_3  and  CG_4
REMARK    4  A    between atoms: CG_4  and  SD_5
REMARK    5  A    between atoms: SD_5  and  C5'_9
REMARK    6  A    between atoms: C5'_9  and  C4'_10
REMARK    7  A    between atoms: C1'_16  and  N9_17
REMARK                            x       y       z     vdW  Elec       q    Type
REMARK                         _______ _______ _______ _____ _____    ______ ____
ROOT
ATOM      1  C4' SAH A 701      29.722   0.422   4.869  0.00  0.00    +0.000 C 
ATOM      2  O4' SAH A 701      29.409   1.536   4.024  0.00  0.00    +0.000 OA
ATOM      3  C3' SAH A 701      29.459   0.854   6.302  0.00  0.00    +0.000 C 
ATOM      4  O3' SAH A 701      30.718   0.984   6.968  0.00  0.00    +0.000 OA
ATOM      5  C2' SAH A 701      28.764   2.198   6.186  0.00  0.00    +0.000 C 
ATOM      6  O2' SAH A 701      29.197   3.108   7.198  0.00  0.00    +0.000 OA
ATOM      7  C1' SAH A 701      29.149   2.700   4.808  0.00  0.00    +0.000 C 
ENDROOT
BRANCH   7   8
ATOM      8  N9  SAH A 701      28.067   3.499   4.191  0.00  0.00    +0.000 N 
ATOM      9  C8  SAH A 701      27.323   3.147   3.126  0.00  0.00    +0.000 C 
ATOM     10  N7  SAH A 701      26.422   4.113   2.817  0.00  0.00    +0.000 NA
ATOM     11  C5  SAH A 701      26.585   5.116   3.697  0.00  0.00    +0.000 C 
ATOM     12  C6  SAH A 701      25.962   6.440   3.944  0.00  0.00    +0.000 C 
ATOM     13  N6  SAH A 701      24.956   6.895   3.166  0.00  0.00    +0.000 NA
ATOM     14  N1  SAH A 701      26.433   7.183   4.973  0.00  0.00    +0.000 NA
ATOM     15  C2  SAH A 701      27.436   6.744   5.763  0.00  0.00    +0.000 C 
ATOM     16  N3  SAH A 701      28.043   5.550   5.597  0.00  0.00    +0.000 NA
ATOM     17  C4  SAH A 701      27.673   4.706   4.600  0.00  0.00    +0.000 C 
ENDBRANCH   7   8
BRANCH   1  18
ATOM     18  C5' SAH A 701      28.894  -0.800   4.475  0.00  0.00    +0.000 C 
BRANCH  18  19
ATOM     19  SD  SAH A 701      27.876  -0.450   3.076  0.00  0.00    +0.000 S 
BRANCH  19  20
ATOM     20  CG  SAH A 701      26.262  -0.728   3.737  0.00  0.00    +0.000 C 
BRANCH  20  21
ATOM     21  CB  SAH A 701      25.840   0.475   4.584  0.00  0.00    +0.000 C 
BRANCH  21  23
ATOM     22  N   SAH A 701      24.418   1.266   2.680  0.00  0.00    +0.000 NA
ATOM     23  CA  SAH A 701      24.515   1.123   4.166  0.00  0.00    +0.000 C 
BRANCH  23  24
ATOM     24  C   SAH A 701      24.350   2.460   4.836  0.00  0.00    +0.000 C 
ATOM     25  O   SAH A 701      24.965   2.747   5.867  0.00  0.00    +0.000 OA
ATOM     26  OXT SAH A 701      23.583   3.299   4.359  0.00  0.00    +0.000 OA
ENDBRANCH  23  24
ENDBRANCH  21  23
ENDBRANCH  20  21
ENDBRANCH  19  20
ENDBRANCH  18  19
ENDBRANCH   1  18
TORSDOF 7
ENDMDL
MODEL 6
REMARK VINA RESULT:      -5.6      2.273      5.170
REMARK  Name = ligand_pdbs\SAH.pdb
REMARK  7 active torsions:
REMARK  status: ('A' for Active; 'I' for Inactive)
REMARK    1  A    between atoms: CA_2  and  CB_3
REMARK    2  A    between atoms: CA_2  and  C_6
REMARK    3  A    between atoms: CB_3  and  CG_4
REMARK    4  A    between atoms: CG_4  and  SD_5
REMARK    5  A    between atoms: SD_5  and  C5'_9
REMARK    6  A    between atoms: C5'_9  and  C4'_10
REMARK    7  A    between atoms: C1'_16  and  N9_17
REMARK                            x       y       z     vdW  Elec       q    Type
REMARK                         _______ _______ _______ _____ _____    ______ ____
ROOT
ATOM      1  C4' SAH A 701      26.352   0.943   5.220  0.00  0.00    +0.000 C 
ATOM      2  O4' SAH A 701      25.378   1.955   5.499  0.00  0.00    +0.000 OA
ATOM      3  C3' SAH A 701      26.675   1.024   3.737  0.00  0.00    +0.000 C 
ATOM      4  O3' SAH A 701      26.125  -0.130   3.096  0.00  0.00    +0.000 OA
ATOM      5  C2' SAH A 701      25.992   2.290   3.255  0.00  0.00    +0.000 C 
ATOM      6  O2' SAH A 701      25.423   2.123   1.955  0.00  0.00    +0.000 OA
ATOM      7  C1' SAH A 701      24.912   2.549   4.287  0.00  0.00    +0.000 C 
ENDROOT
BRANCH   7   8
ATOM      8  N9  SAH A 701      24.677   3.997   4.486  0.00  0.00    +0.000 N 
ATOM      9  C8  SAH A 701      23.487   4.624   4.456  0.00  0.00    +0.000 C 
ATOM     10  N7  SAH A 701      23.629   5.956   4.672  0.00  0.00    +0.000 NA
ATOM     11  C5  SAH A 701      24.939   6.202   4.842  0.00  0.00    +0.000 C 
ATOM     12  C6  SAH A 701      25.783   7.392   5.110  0.00  0.00    +0.000 C 
ATOM     13  N6  SAH A 701      25.237   8.621   5.242  0.00  0.00    +0.000 NA
ATOM     14  N1  SAH A 701      27.121   7.214   5.215  0.00  0.00    +0.000 NA
ATOM     15  C2  SAH A 701      27.685   5.994   5.089  0.00  0.00    +0.000 C 
ATOM     16  N3  SAH A 701      26.977   4.870   4.851  0.00  0.00    +0.000 NA
ATOM     17  C4  SAH A 701      25.626   4.905   4.717  0.00  0.00    +0.000 C 
ENDBRANCH   7   8
BRANCH   1  18
ATOM     18  C5' SAH A 701      27.593   1.138   6.090  0.00  0.00    +0.000 C 
BRANCH  18  19
ATOM     19  SD  SAH A 701      28.756   2.207   5.304  0.00  0.00    +0.000 S 
BRANCH  19  20
ATOM     20  CG  SAH A 701      30.190   1.177   5.234  0.00  0.00    +0.000 C 
BRANCH  20  21
ATOM     21  CB  SAH A 701      29.773  -0.290   5.366  0.00  0.00    +0.000 C 
BRANCH  21  23
ATOM     22  N   SAH A 701      29.780  -0.163   2.865  0.00  0.00    +0.000 NA
ATOM     23  CA  SAH A 701      29.758  -1.076   4.051  0.00  0.00    +0.000 C 
BRANCH  23  24
ATOM     24  C   SAH A 701      28.560  -1.984   3.994  0.00  0.00    +0.000 C 
ATOM     25  O   SAH A 701      27.893  -2.238   5.001  0.00  0.00    +0.000 OA
ATOM     26  OXT SAH A 701      28.224  -2.498   2.925  0.00  0.00    +0.000 OA
ENDBRANCH  23  24
ENDBRANCH  21  23
ENDBRANCH  20  21
ENDBRANCH  19  20
ENDBRANCH  18  19
ENDBRANCH   1  18
TORSDOF 7
ENDMDL
MODEL 7
REMARK VINA RESULT:      -5.5      2.100      6.001
REMARK  Name = ligand_pdbs\SAH.pdb
REMARK  7 active torsions:
REMARK  status: ('A' for Active; 'I' for Inactive)
REMARK    1  A    between atoms: CA_2  and  CB_3
REMARK    2  A    between atoms: CA_2  and  C_6
REMARK    3  A    between atoms: CB_3  and  CG_4
REMARK    4  A    between atoms: CG_4  and  SD_5
REMARK    5  A    between atoms: SD_5  and  C5'_9
REMARK    6  A    between atoms: C5'_9  and  C4'_10
REMARK    7  A    between atoms: C1'_16  and  N9_17
REMARK                            x       y       z     vdW  Elec       q    Type
REMARK                         _______ _______ _______ _____ _____    ______ ____
ROOT
ATOM      1  C4' SAH A 701      24.412   2.853   4.693  0.00  0.00    +0.000 C 
ATOM      2  O4' SAH A 701      25.468   2.499   5.593  0.00  0.00    +0.000 OA
ATOM      3  C3' SAH A 701      24.628   4.302   4.290  0.00  0.00    +0.000 C 
ATOM      4  O3' SAH A 701      23.605   5.092   4.900  0.00  0.00    +0.000 OA
ATOM      5  C2' SAH A 701      25.994   4.663   4.841  0.00  0.00    +0.000 C 
ATOM      6  O2' SAH A 701      26.024   5.995   5.356  0.00  0.00    +0.000 OA
ATOM      7  C1' SAH A 701      26.231   3.652   5.946  0.00  0.00    +0.000 C 
ENDROOT
BRANCH   7   8
ATOM      8  N9  SAH A 701      27.663   3.298   6.071  0.00  0.00    +0.000 N 
ATOM      9  C8  SAH A 701      28.702   4.153   6.045  0.00  0.00    +0.000 C 
ATOM     10  N7  SAH A 701      29.882   3.496   6.180  0.00  0.00    +0.000 NA
ATOM     11  C5  SAH A 701      29.604   2.185   6.293  0.00  0.00    +0.000 C 
ATOM     12  C6  SAH A 701      30.382   0.934   6.464  0.00  0.00    +0.000 C 
ATOM     13  N6  SAH A 701      31.731   0.955   6.544  0.00  0.00    +0.000 NA
ATOM     14  N1  SAH A 701      29.702  -0.234   6.535  0.00  0.00    +0.000 NA
ATOM     15  C2  SAH A 701      28.355  -0.275   6.459  0.00  0.00    +0.000 C 
ATOM     16  N3  SAH A 701      27.586   0.824   6.309  0.00  0.00    +0.000 NA
ATOM     17  C4  SAH A 701      28.139   2.061   6.218  0.00  0.00    +0.000 C 
ENDBRANCH   7   8
BRANCH   1  18
ATOM     18  C5' SAH A 701      24.399   1.915   3.486  0.00  0.00    +0.000 C 
BRANCH  18  19
ATOM     19  SD  SAH A 701      26.038   1.610   2.905  0.00  0.00    +0.000 S 
BRANCH  19  20
ATOM     20  CG  SAH A 701      26.241  -0.098   3.308  0.00  0.00    +0.000 C 
BRANCH  20  21
ATOM     21  CB  SAH A 701      27.618  -0.575   2.838  0.00  0.00    +0.000 C 
BRANCH  21  23
ATOM     22  N   SAH A 701      27.117  -2.541   4.306  0.00  0.00    +0.000 NA
ATOM     23  CA  SAH A 701      27.937  -2.039   3.159  0.00  0.00    +0.000 C 
BRANCH  23  24
ATOM     24  C   SAH A 701      29.403  -2.207   3.448  0.00  0.00    +0.000 C 
ATOM     25  O   SAH A 701      29.912  -3.323   3.585  0.00  0.00    +0.000 OA
ATOM     26  OXT SAH A 701      30.129  -1.217   3.557  0.00  0.00    +0.000 OA
ENDBRANCH  23  24
ENDBRANCH  21  23
ENDBRANCH  20  21
ENDBRANCH  19  20
ENDBRANCH  18  19
ENDBRANCH   1  18
TORSDOF 7
ENDMDL
MODEL 8
REMARK VINA RESULT:      -5.5      2.281      3.683
REMARK  Name = ligand_pdbs\SAH.pdb
REMARK  7 active torsions:
REMARK  status: ('A' for Active; 'I' for Inactive)
REMARK    1  A    between atoms: CA_2  and  CB_3
REMARK    2  A    between atoms: CA_2  and  C_6
REMARK    3  A    between atoms: CB_3  and  CG_4
REMARK    4  A    between atoms: CG_4  and  SD_5
REMARK    5  A    between atoms: SD_5  and  C5'_9
REMARK    6  A    between atoms: C5'_9  and  C4'_10
REMARK    7  A    between atoms: C1'_16  and  N9_17
REMARK                            x       y       z     vdW  Elec       q    Type
REMARK                         _______ _______ _______ _____ _____    ______ ____
ROOT
ATOM      1  C4' SAH A 701      29.987   1.420   4.722  0.00  0.00    +0.000 C 
ATOM      2  O4' SAH A 701      28.853   2.149   4.237  0.00  0.00    +0.000 OA
ATOM      3  C3' SAH A 701      30.276   1.918   6.129  0.00  0.00    +0.000 C 
ATOM      4  O3' SAH A 701      31.491   2.671   6.095  0.00  0.00    +0.000 OA
ATOM      5  C2' SAH A 701      29.097   2.805   6.482  0.00  0.00    +0.000 C 
ATOM      6  O2' SAH A 701      29.503   3.958   7.220  0.00  0.00    +0.000 OA
ATOM      7  C1' SAH A 701      28.511   3.201   5.140  0.00  0.00    +0.000 C 
ENDROOT
BRANCH   7   8
ATOM      8  N9  SAH A 701      27.041   3.359   5.206  0.00  0.00    +0.000 N 
ATOM      9  C8  SAH A 701      26.171   2.501   5.768  0.00  0.00    +0.000 C 
ATOM     10  N7  SAH A 701      24.895   2.948   5.648  0.00  0.00    +0.000 NA
ATOM     11  C5  SAH A 701      24.936   4.120   4.991  0.00  0.00    +0.000 C 
ATOM     12  C6  SAH A 701      23.950   5.128   4.531  0.00  0.00    +0.000 C 
ATOM     13  N6  SAH A 701      22.628   4.966   4.756  0.00  0.00    +0.000 NA
ATOM     14  N1  SAH A 701      24.413   6.217   3.873  0.00  0.00    +0.000 NA
ATOM     15  C2  SAH A 701      25.730   6.397   3.641  0.00  0.00    +0.000 C 
ATOM     16  N3  SAH A 701      26.680   5.523   4.035  0.00  0.00    +0.000 NA
ATOM     17  C4  SAH A 701      26.355   4.385   4.701  0.00  0.00    +0.000 C 
ENDBRANCH   7   8
BRANCH   1  18
ATOM     18  C5' SAH A 701      29.712  -0.083   4.689  0.00  0.00    +0.000 C 
BRANCH  18  19
ATOM     19  SD  SAH A 701      28.602  -0.552   5.979  0.00  0.00    +0.000 S 
BRANCH  19  20
ATOM     20  CG  SAH A 701      27.395  -1.481   5.084  0.00  0.00    +0.000 C 
BRANCH  20  21
ATOM     21  CB  SAH A 701      26.269  -0.551   4.625  0.00  0.00    +0.000 C 
BRANCH  21  23
ATOM     22  N   SAH A 701      27.517  -0.423   2.458  0.00  0.00    +0.000 NA
ATOM     23  CA  SAH A 701      26.171  -0.358   3.108  0.00  0.00    +0.000 C 
BRANCH  23  24
ATOM     24  C   SAH A 701      25.494   0.946   2.787  0.00  0.00    +0.000 C 
ATOM     25  O   SAH A 701      24.298   1.130   3.027  0.00  0.00    +0.000 OA
ATOM     26  OXT SAH A 701      26.133   1.862   2.266  0.00  0.00    +0.000 OA
ENDBRANCH  23  24
ENDBRANCH  21  23
ENDBRANCH  20  21
ENDBRANCH  19  20
ENDBRANCH  18  19
ENDBRANCH   1  18
TORSDOF 7
ENDMDL
MODEL 9
REMARK VINA RESULT:      -5.4      2.290      4.777
REMARK  Name = ligand_pdbs\SAH.pdb
REMARK  7 active torsions:
REMARK  status: ('A' for Active; 'I' for Inactive)
REMARK    1  A    between atoms: CA_2  and  CB_3
REMARK    2  A    between atoms: CA_2  and  C_6
REMARK    3  A    between atoms: CB_3  and  CG_4
REMARK    4  A    between atoms: CG_4  and  SD_5
REMARK    5  A    between atoms: SD_5  and  C5'_9
REMARK    6  A    between atoms: C5'_9  and  C4'_10
REMARK    7  A    between atoms: C1'_16  and  N9_17
REMARK                            x       y       z     vdW  Elec       q    Type
REMARK                         _______ _______ _______ _____ _____    ______ ____
ROOT
ATOM      1  C4' SAH A 701      27.270   1.026   4.090  0.00  0.00    +0.000 C 
ATOM      2  O4' SAH A 701      26.714   2.048   4.926  0.00  0.00    +0.000 OA
ATOM      3  C3' SAH A 701      26.212   0.658   3.063  0.00  0.00    +0.000 C 
ATOM      4  O3' SAH A 701      25.726  -0.651   3.370  0.00  0.00    +0.000 OA
ATOM      5  C2' SAH A 701      25.120   1.697   3.234  0.00  0.00    +0.000 C 
ATOM      6  O2' SAH A 701      23.818   1.126   3.095  0.00  0.00    +0.000 OA
ATOM      7  C1' SAH A 701      25.328   2.230   4.638  0.00  0.00    +0.000 C 
ENDROOT
BRANCH   7   8
ATOM      8  N9  SAH A 701      24.969   3.663   4.742  0.00  0.00    +0.000 N 
ATOM      9  C8  SAH A 701      23.727   4.178   4.721  0.00  0.00    +0.000 C 
ATOM     10  N7  SAH A 701      23.755   5.530   4.833  0.00  0.00    +0.000 NA
ATOM     11  C5  SAH A 701      25.043   5.903   4.924  0.00  0.00    +0.000 C 
ATOM     12  C6  SAH A 701      25.784   7.180   5.064  0.00  0.00    +0.000 C 
ATOM     13  N6  SAH A 701      25.133   8.362   5.131  0.00  0.00    +0.000 NA
ATOM     14  N1  SAH A 701      27.136   7.129   5.121  0.00  0.00    +0.000 NA
ATOM     15  C2  SAH A 701      27.804   5.957   5.058  0.00  0.00    +0.000 C 
ATOM     16  N3  SAH A 701      27.192   4.760   4.935  0.00  0.00    +0.000 NA
ATOM     17  C4  SAH A 701      25.840   4.666   4.862  0.00  0.00    +0.000 C 
ENDBRANCH   7   8
BRANCH   1  18
ATOM     18  C5' SAH A 701      28.563   1.511   3.437  0.00  0.00    +0.000 C 
BRANCH  18  19
ATOM     19  SD  SAH A 701      29.596   0.151   2.992  0.00  0.00    +0.000 S 
BRANCH  19  20
ATOM     20  CG  SAH A 701      29.574  -0.808   4.476  0.00  0.00    +0.000 C 
BRANCH  20  21
ATOM     21  CB  SAH A 701      30.643  -0.286   5.439  0.00  0.00    +0.000 C 
BRANCH  21  23
ATOM     22  N   SAH A 701      28.697   0.116   6.964  0.00  0.00    +0.000 NA
ATOM     23  CA  SAH A 701      30.101   0.512   6.630  0.00  0.00    +0.000 C 
BRANCH  23  24
ATOM     24  C   SAH A 701      30.178   1.989   6.352  0.00  0.00    +0.000 C 
ATOM     25  O   SAH A 701      29.317   2.770   6.765  0.00  0.00    +0.000 OA
ATOM     26  OXT SAH A 701      31.115   2.446   5.695  0.00  0.00    +0.000 OA
ENDBRANCH  23  24
ENDBRANCH  21  23
ENDBRANCH  20  21
ENDBRANCH  19  20
ENDBRANCH  18  19
ENDBRANCH   1  18
TORSDOF 7
ENDMDL
