MODEL 1
REMARK VINA RESULT:      -6.1      0.000      0.000
REMARK  Name = ligand_pdbs\SAM.pdb
REMARK  7 active torsions:
REMARK  status: ('A' for Active; 'I' for Inactive)
REMARK    1  A    between atoms: CA_2  and  C_3
REMARK    2  A    between atoms: CA_2  and  CB_6
REMARK    3  A    between atoms: CB_6  and  CG_7
REMARK    4  A    between atoms: CG_7  and  SD_8
REMARK    5  A    between atoms: SD_8  and  C5'_10
REMARK    6  A    between atoms: C5'_10  and  C4'_11
REMARK    7  A    between atoms: C1'_17  and  N9_18
REMARK                            x       y       z     vdW  Elec       q    Type
REMARK                         _______ _______ _______ _____ _____    ______ ____
ROOT
ATOM      1  C4' SAM A 237      29.483   0.376   5.234  0.00  0.00    +0.000 C 
ATOM      2  O4' SAM A 237      29.093   1.484   4.427  0.00  0.00    +0.000 OA
ATOM      3  C3' SAM A 237      29.797   0.936   6.602  0.00  0.00    +0.000 C 
ATOM      4  O3' SAM A 237      30.766   0.145   7.260  0.00  0.00    +0.000 OA
ATOM      5  C2' SAM A 237      30.254   2.346   6.294  0.00  0.00    +0.000 C 
ATOM      6  O2' SAM A 237      31.629   2.347   5.923  0.00  0.00    +0.000 OA
ATOM      7  C1' SAM A 237      29.441   2.704   5.061  0.00  0.00    +0.000 C 
ENDROOT
BRANCH   7   8
ATOM      8  N9  SAM A 237      28.196   3.438   5.395  0.00  0.00    +0.000 N 
ATOM      9  C8  SAM A 237      27.475   3.306   6.560  0.00  0.00    +0.000 C 
ATOM     10  N7  SAM A 237      26.379   4.100   6.494  0.00  0.00    +0.000 NA
ATOM     11  C5  SAM A 237      26.392   4.717   5.280  0.00  0.00    +0.000 C 
ATOM     12  C6  SAM A 237      25.516   5.621   4.683  0.00  0.00    +0.000 C 
ATOM     13  N6  SAM A 237      24.428   6.058   5.300  0.00  0.00    +0.000 NA
ATOM     14  N1  SAM A 237      25.802   6.082   3.428  0.00  0.00    +0.000 NA
ATOM     15  C2  SAM A 237      26.923   5.656   2.749  0.00  0.00    +0.000 C 
ATOM     16  N3  SAM A 237      27.798   4.754   3.324  0.00  0.00    +0.000 NA
ATOM     17  C4  SAM A 237      27.515   4.289   4.578  0.00  0.00    +0.000 C 
ENDBRANCH   7   8
BRANCH   1  18
ATOM     18  C5' SAM A 237      28.389  -0.666   5.346  0.00  0.00    +0.000 C 
BRANCH  18  19
ATOM     19  SD  SAM A 237      28.065  -1.593   3.825  0.00  0.00    +0.000 S 
ATOM     20  CE  SAM A 237      26.978  -2.858   4.524  0.00  0.00    +0.000 C 
BRANCH  19  21
ATOM     21  CG  SAM A 237      26.913  -0.506   2.912  0.00  0.00    +0.000 C 
BRANCH  21  22
ATOM     22  CB  SAM A 237      25.774  -0.002   3.829  0.00  0.00    +0.000 C 
BRANCH  22  24
ATOM     23  N   SAM A 237      25.946   2.006   2.363  0.00  0.00    +0.000 NA
ATOM     24  CA  SAM A 237      25.027   1.187   3.205  0.00  0.00    +0.000 C 
BRANCH  24  25
ATOM     25  C   SAM A 237      24.299   2.067   4.229  0.00  0.00    +0.000 C 
ATOM     26  O   SAM A 237      23.495   2.970   3.903  0.00  0.00    +0.000 OA
ATOM     27  OXT SAM A 237      24.500   1.877   5.425  0.00  0.00    +0.000 OA
ENDBRANCH  24  25
ENDBRANCH  22  24
ENDBRANCH  21  22
ENDBRANCH  19  21
ENDBRANCH  18  19
ENDBRANCH   1  18
TORSDOF 7
ENDMDL
MODEL 2
REMARK VINA RESULT:      -5.9      2.400      4.295
REMARK  Name = ligand_pdbs\SAM.pdb
REMARK  7 active torsions:
REMARK  status: ('A' for Active; 'I' for Inactive)
REMARK    1  A    between atoms: CA_2  and  C_3
REMARK    2  A    between atoms: CA_2  and  CB_6
REMARK    3  A    between atoms: CB_6  and  CG_7
REMARK    4  A    between atoms: CG_7  and  SD_8
REMARK    5  A    between atoms: SD_8  and  C5'_10
REMARK    6  A    between atoms: C5'_10  and  C4'_11
REMARK    7  A    between atoms: C1'_17  and  N9_18
REMARK                            x       y       z     vdW  Elec       q    Type
REMARK                         _______ _______ _______ _____ _____    ______ ____
ROOT
ATOM      1  C4' SAM A 237      27.049   1.826   4.359  0.00  0.00    +0.000 C 
ATOM      2  O4' SAM A 237      26.290   2.445   5.395  0.00  0.00    +0.000 OA
ATOM      3  C3' SAM A 237      26.252   1.997   3.088  0.00  0.00    +0.000 C 
ATOM      4  O3' SAM A 237      26.511   0.941   2.184  0.00  0.00    +0.000 OA
ATOM      5  C2' SAM A 237      24.823   2.047   3.587  0.00  0.00    +0.000 C 
ATOM      6  O2' SAM A 237      24.324   0.728   3.782  0.00  0.00    +0.000 OA
ATOM      7  C1' SAM A 237      24.966   2.696   4.955  0.00  0.00    +0.000 C 
ENDROOT
BRANCH   7   8
ATOM      8  N9  SAM A 237      24.748   4.163   4.913  0.00  0.00    +0.000 N 
ATOM      9  C8  SAM A 237      23.552   4.789   4.642  0.00  0.00    +0.000 C 
ATOM     10  N7  SAM A 237      23.743   6.129   4.649  0.00  0.00    +0.000 NA
ATOM     11  C5  SAM A 237      25.064   6.354   4.900  0.00  0.00    +0.000 C 
ATOM     12  C6  SAM A 237      25.806   7.528   5.009  0.00  0.00    +0.000 C 
ATOM     13  N6  SAM A 237      25.254   8.725   4.876  0.00  0.00    +0.000 NA
ATOM     14  N1  SAM A 237      27.143   7.437   5.280  0.00  0.00    +0.000 NA
ATOM     15  C2  SAM A 237      27.760   6.212   5.429  0.00  0.00    +0.000 C 
ATOM     16  N3  SAM A 237      27.039   5.039   5.316  0.00  0.00    +0.000 NA
ATOM     17  C4  SAM A 237      25.702   5.126   5.044  0.00  0.00    +0.000 C 
ENDBRANCH   7   8
BRANCH   1  18
ATOM     18  C5' SAM A 237      28.417   2.456   4.196  0.00  0.00    +0.000 C 
BRANCH  18  19
ATOM     19  SD  SAM A 237      29.805   1.390   4.660  0.00  0.00    +0.000 S 
ATOM     20  CE  SAM A 237      29.147   0.785   6.233  0.00  0.00    +0.000 C 
BRANCH  19  21
ATOM     21  CG  SAM A 237      29.617  -0.046   3.545  0.00  0.00    +0.000 C 
BRANCH  21  22
ATOM     22  CB  SAM A 237      29.481  -1.362   4.345  0.00  0.00    +0.000 C 
BRANCH  22  24
ATOM     23  N   SAM A 237      28.029  -1.851   2.379  0.00  0.00    +0.000 NA
ATOM     24  CA  SAM A 237      28.380  -2.267   3.768  0.00  0.00    +0.000 C 
BRANCH  24  25
ATOM     25  C   SAM A 237      27.125  -2.351   4.644  0.00  0.00    +0.000 C 
ATOM     26  O   SAM A 237      26.723  -1.402   5.354  0.00  0.00    +0.000 OA
ATOM     27  OXT SAM A 237      26.471  -3.390   4.647  0.00  0.00    +0.000 OA
ENDBRANCH  24  25
ENDBRANCH  22  24
ENDBRANCH  21  22
ENDBRANCH  19  21
ENDBRANCH  18  19
ENDBRANCH   1  18
TORSDOF 7
ENDMDL
MODEL 3
REMARK VINA RESULT:      -5.8      2.545      4.508
REMARK  Name = ligand_pdbs\SAM.pdb
REMARK  7 active torsions:
REMARK  status: ('A' for Active; 'I' for Inactive)
REMARK    1  A    between atoms: CA_2  and  C_3
REMARK    2  A    between atoms: CA_2  and  CB_6
REMARK    3  A    between atoms: CB_6  and  CG_7
REMARK    4  A    between atoms: CG_7  and  SD_8
REMARK    5  A    between atoms: SD_8  and  C5'_10
REMARK    6  A    between atoms: C5'_10  and  C4'_11
REMARK    7  A    between atoms: C1'_17  and  N9_18
REMARK                            x       y       z     vdW  Elec       q    Type
REMARK                         _______ _______ _______ _____ _____    ______ ____
ROOT
ATOM      1  C4' SAM A 237      28.651  -0.557   4.988  0.00  0.00    +0.000 C 
ATOM      2  O4' SAM A 237      27.493  -0.129   5.701  0.00  0.00    +0.000 OA
ATOM      3  C3' SAM A 237      28.162  -1.071   3.654  0.00  0.00    +0.000 C 
ATOM      4  O3' SAM A 237      29.026  -2.071   3.152  0.00  0.00    +0.000 OA
ATOM      5  C2' SAM A 237      26.765  -1.561   3.971  0.00  0.00    +0.000 C 
ATOM      6  O2' SAM A 237      26.817  -2.876   4.515  0.00  0.00    +0.000 OA
ATOM      7  C1' SAM A 237      26.319  -0.619   5.077  0.00  0.00    +0.000 C 
ENDROOT
BRANCH   7   8
ATOM      8  N9  SAM A 237      25.537   0.532   4.562  0.00  0.00    +0.000 N 
ATOM      9  C8  SAM A 237      25.007   0.639   3.296  0.00  0.00    +0.000 C 
ATOM     10  N7  SAM A 237      24.398   1.842   3.173  0.00  0.00    +0.000 NA
ATOM     11  C5  SAM A 237      24.561   2.507   4.351  0.00  0.00    +0.000 C 
ATOM     12  C6  SAM A 237      24.151   3.770   4.774  0.00  0.00    +0.000 C 
ATOM     13  N6  SAM A 237      23.458   4.584   3.991  0.00  0.00    +0.000 NA
ATOM     14  N1  SAM A 237      24.463   4.171   6.043  0.00  0.00    +0.000 NA
ATOM     15  C2  SAM A 237      25.182   3.357   6.893  0.00  0.00    +0.000 C 
ATOM     16  N3  SAM A 237      25.601   2.105   6.486  0.00  0.00    +0.000 NA
ATOM     17  C4  SAM A 237      25.293   1.701   5.217  0.00  0.00    +0.000 C 
ENDBRANCH   7   8
BRANCH   1  18
ATOM     18  C5' SAM A 237      29.641   0.569   4.772  0.00  0.00    +0.000 C 
BRANCH  18  19
ATOM     19  SD  SAM A 237      29.309   2.068   5.731  0.00  0.00    +0.000 S 
ATOM     20  CE  SAM A 237      31.003   2.696   5.818  0.00  0.00    +0.000 C 
BRANCH  19  21
ATOM     21  CG  SAM A 237      28.512   3.174   4.512  0.00  0.00    +0.000 C 
BRANCH  21  22
ATOM     22  CB  SAM A 237      28.124   4.527   5.152  0.00  0.00    +0.000 C 
BRANCH  22  24
ATOM     23  N   SAM A 237      27.339   5.173   2.877  0.00  0.00    +0.000 NA
ATOM     24  CA  SAM A 237      27.042   5.252   4.337  0.00  0.00    +0.000 C 
BRANCH  24  25
ATOM     25  C   SAM A 237      26.811   6.705   4.767  0.00  0.00    +0.000 C 
ATOM     26  O   SAM A 237      25.792   7.358   4.447  0.00  0.00    +0.000 OA
ATOM     27  OXT SAM A 237      27.653   7.258   5.469  0.00  0.00    +0.000 OA
ENDBRANCH  24  25
ENDBRANCH  22  24
ENDBRANCH  21  22
ENDBRANCH  19  21
ENDBRANCH  18  19
ENDBRANCH   1  18
TORSDOF 7
ENDMDL
MODEL 4
REMARK VINA RESULT:      -5.2      1.843      4.074
REMARK  Name = ligand_pdbs\SAM.pdb
REMARK  7 active torsions:
REMARK  status: ('A' for Active; 'I' for Inactive)
REMARK    1  A    between atoms: CA_2  and  C_3
REMARK    2  A    between atoms: CA_2  and  CB_6
REMARK    3  A    between atoms: CB_6  and  CG_7
REMARK    4  A    between atoms: CG_7  and  SD_8
REMARK    5  A    between atoms: SD_8  and  C5'_10
REMARK    6  A    between atoms: C5'_10  and  C4'_11
REMARK    7  A    between atoms: C1'_17  and  N9_18
REMARK                            x       y       z     vdW  Elec       q    Type
REMARK                         _______ _______ _______ _____ _____    ______ ____
ROOT
ATOM      1  C4' SAM A 237      25.828   0.178   4.043  0.00  0.00    +0.000 C 
ATOM      2  O4' SAM A 237      24.597   0.893   4.104  0.00  0.00    +0.000 OA
ATOM      3  C3' SAM A 237      26.779   1.037   3.244  0.00  0.00    +0.000 C 
ATOM      4  O3' SAM A 237      27.734   0.241   2.570  0.00  0.00    +0.000 OA
ATOM      5  C2' SAM A 237      25.853   1.804   2.323  0.00  0.00    +0.000 C 
ATOM      6  O2' SAM A 237      25.529   1.015   1.183  0.00  0.00    +0.000 OA
ATOM      7  C1' SAM A 237      24.592   1.950   3.159  0.00  0.00    +0.000 C 
ENDROOT
BRANCH   7   8
ATOM      8  N9  SAM A 237      24.541   3.241   3.890  0.00  0.00    +0.000 N 
ATOM      9  C8  SAM A 237      23.434   3.764   4.518  0.00  0.00    +0.000 C 
ATOM     10  N7  SAM A 237      23.751   4.973   5.039  0.00  0.00    +0.000 NA
ATOM     11  C5  SAM A 237      25.051   5.227   4.722  0.00  0.00    +0.000 C 
ATOM     12  C6  SAM A 237      25.882   6.313   4.992  0.00  0.00    +0.000 C 
ATOM     13  N6  SAM A 237      25.466   7.363   5.685  0.00  0.00    +0.000 NA
ATOM     14  N1  SAM A 237      27.173   6.281   4.540  0.00  0.00    +0.000 NA
ATOM     15  C2  SAM A 237      27.649   5.209   3.816  0.00  0.00    +0.000 C 
ATOM     16  N3  SAM A 237      26.836   4.128   3.535  0.00  0.00    +0.000 NA
ATOM     17  C4  SAM A 237      25.545   4.157   3.983  0.00  0.00    +0.000 C 
ENDBRANCH   7   8
BRANCH   1  18
ATOM     18  C5' SAM A 237      26.407  -0.087   5.417  0.00  0.00    +0.000 C 
BRANCH  18  19
ATOM     19  SD  SAM A 237      27.565  -1.476   5.499  0.00  0.00    +0.000 S 
ATOM     20  CE  SAM A 237      27.168  -2.234   3.906  0.00  0.00    +0.000 C 
BRANCH  19  21
ATOM     21  CG  SAM A 237      29.185  -0.685   5.197  0.00  0.00    +0.000 C 
BRANCH  21  22
ATOM     22  CB  SAM A 237      29.498   0.380   6.274  0.00  0.00    +0.000 C 
BRANCH  22  24
ATOM     23  N   SAM A 237      30.917   2.332   5.653  0.00  0.00    +0.000 NA
ATOM     24  CA  SAM A 237      29.525   1.798   5.682  0.00  0.00    +0.000 C 
BRANCH  24  25
ATOM     25  C   SAM A 237      28.580   2.780   6.383  0.00  0.00    +0.000 C 
ATOM     26  O   SAM A 237      28.964   3.867   6.869  0.00  0.00    +0.000 OA
ATOM     27  OXT SAM A 237      27.387   2.500   6.466  0.00  0.00    +0.000 OA
ENDBRANCH  24  25
ENDBRANCH  22  24
ENDBRANCH  21  22
ENDBRANCH  19  21
ENDBRANCH  18  19
ENDBRANCH   1  18
TORSDOF 7
ENDMDL
MODEL 5
REMARK VINA RESULT:      -5.0      3.176      5.742
REMARK  Name = ligand_pdbs\SAM.pdb
REMARK  7 active torsions:
REMARK  status: ('A' for Active; 'I' for Inactive)
REMARK    1  A    between atoms: CA_2  and  C_3
REMARK    2  A    between atoms: CA_2  and  CB_6
REMARK    3  A    between atoms: CB_6  and  CG_7
REMARK    4  A    between atoms: CG_7  and  SD_8
REMARK    5  A    between atoms: SD_8  and  C5'_10
REMARK    6  A    between atoms: C5'_10  and  C4'_11
REMARK    7  A    between atoms: C1'_17  and  N9_18
REMARK                            x       y       z     vdW  Elec       q    Type
REMARK                         _______ _______ _______ _____ _____    ______ ____
ROOT
ATOM      1  C4' SAM A 237      26.946   3.068   6.573  0.00  0.00    +0.000 C 
ATOM      2  O4' SAM A 237      27.549   1.786   6.721  0.00  0.00    +0.000 OA
ATOM      3  C3' SAM A 237      27.830   3.848   5.628  0.00  0.00    +0.000 C 
ATOM      4  O3' SAM A 237      27.754   5.234   5.893  0.00  0.00    +0.000 OA
ATOM      5  C2' SAM A 237      29.198   3.246   5.870  0.00  0.00    +0.000 C 
ATOM      6  O2' SAM A 237      29.804   3.845   7.011  0.00  0.00    +0.000 OA
ATOM      7  C1' SAM A 237      28.875   1.803   6.222  0.00  0.00    +0.000 C 
ENDROOT
BRANCH   7   8
ATOM      8  N9  SAM A 237      28.953   0.901   5.046  0.00  0.00    +0.000 N 
ATOM      9  C8  SAM A 237      29.656   1.151   3.889  0.00  0.00    +0.000 C 
ATOM     10  N7  SAM A 237      29.461   0.127   3.024  0.00  0.00    +0.000 NA
ATOM     11  C5  SAM A 237      28.616  -0.760   3.621  0.00  0.00    +0.000 C 
ATOM     12  C6  SAM A 237      28.078  -1.971   3.191  0.00  0.00    +0.000 C 
ATOM     13  N6  SAM A 237      28.360  -2.484   2.002  0.00  0.00    +0.000 NA
ATOM     14  N1  SAM A 237      27.247  -2.656   4.033  0.00  0.00    +0.000 NA
ATOM     15  C2  SAM A 237      26.927  -2.162   5.280  0.00  0.00    +0.000 C 
ATOM     16  N3  SAM A 237      27.447  -0.959   5.718  0.00  0.00    +0.000 NA
ATOM     17  C4  SAM A 237      28.277  -0.270   4.878  0.00  0.00    +0.000 C 
ENDBRANCH   7   8
BRANCH   1  18
ATOM     18  C5' SAM A 237      25.543   2.982   6.009  0.00  0.00    +0.000 C 
BRANCH  18  19
ATOM     19  SD  SAM A 237      25.420   3.284   4.228  0.00  0.00    +0.000 S 
ATOM     20  CE  SAM A 237      24.536   1.773   3.773  0.00  0.00    +0.000 C 
BRANCH  19  21
ATOM     21  CG  SAM A 237      24.130   4.576   4.114  0.00  0.00    +0.000 C 
BRANCH  21  22
ATOM     22  CB  SAM A 237      24.350   5.681   5.173  0.00  0.00    +0.000 C 
BRANCH  22  24
ATOM     23  N   SAM A 237      25.144   6.909   3.155  0.00  0.00    +0.000 NA
ATOM     24  CA  SAM A 237      24.567   7.056   4.523  0.00  0.00    +0.000 C 
BRANCH  24  25
ATOM     25  C   SAM A 237      25.412   8.015   5.369  0.00  0.00    +0.000 C 
ATOM     26  O   SAM A 237      24.914   8.843   6.165  0.00  0.00    +0.000 OA
ATOM     27  OXT SAM A 237      26.636   7.967   5.277  0.00  0.00    +0.000 OA
ENDBRANCH  24  25
ENDBRANCH  22  24
ENDBRANCH  21  22
ENDBRANCH  19  21
ENDBRANCH  18  19
ENDBRANCH   1  18
TORSDOF 7
ENDMDL
MODEL 6
REMARK VINA RESULT:      -4.9      2.115      3.597
REMARK  Name = ligand_pdbs\SAM.pdb
REMARK  7 active torsions:
REMARK  status: ('A' for Active; 'I' for Inactive)
REMARK    1  A    between atoms: CA_2  and  C_3
REMARK    2  A    between atoms: CA_2  and  CB_6
REMARK    3  A    between atoms: CB_6  and  CG_7
REMARK    4  A    between atoms: CG_7  and  SD_8
REMARK    5  A    between atoms: SD_8  and  C5'_10
REMARK    6  A    between atoms: C5'_10  and  C4'_11
REMARK    7  A    between atoms: C1'_17  and  N9_18
REMARK                            x       y       z     vdW  Elec       q    Type
REMARK                         _______ _______ _______ _____ _____    ______ ____
ROOT
ATOM      1  C4' SAM A 237      27.537   1.662   4.778  0.00  0.00    +0.000 C 
ATOM      2  O4' SAM A 237      27.724   2.775   3.908  0.00  0.00    +0.000 OA
ATOM      3  C3' SAM A 237      27.958   2.122   6.154  0.00  0.00    +0.000 C 
ATOM      4  O3' SAM A 237      28.440   1.039   6.923  0.00  0.00    +0.000 OA
ATOM      5  C2' SAM A 237      29.000   3.180   5.854  0.00  0.00    +0.000 C 
ATOM      6  O2' SAM A 237      30.264   2.570   5.616  0.00  0.00    +0.000 OA
ATOM      7  C1' SAM A 237      28.515   3.768   4.539  0.00  0.00    +0.000 C 
ENDROOT
BRANCH   7   8
ATOM      8  N9  SAM A 237      27.686   4.984   4.733  0.00  0.00    +0.000 N 
ATOM      9  C8  SAM A 237      28.156   6.225   5.099  0.00  0.00    +0.000 C 
ATOM     10  N7  SAM A 237      27.110   7.076   5.221  0.00  0.00    +0.000 NA
ATOM     11  C5  SAM A 237      25.975   6.371   4.954  0.00  0.00    +0.000 C 
ATOM     12  C6  SAM A 237      24.630   6.737   4.940  0.00  0.00    +0.000 C 
ATOM     13  N6  SAM A 237      24.234   7.973   5.209  0.00  0.00    +0.000 NA
ATOM     14  N1  SAM A 237      23.695   5.791   4.622  0.00  0.00    +0.000 NA
ATOM     15  C2  SAM A 237      24.061   4.493   4.335  0.00  0.00    +0.000 C 
ATOM     16  N3  SAM A 237      25.389   4.113   4.351  0.00  0.00    +0.000 NA
ATOM     17  C4  SAM A 237      26.327   5.055   4.671  0.00  0.00    +0.000 C 
ENDBRANCH   7   8
BRANCH   1  18
ATOM     18  C5' SAM A 237      26.097   1.196   4.812  0.00  0.00    +0.000 C 
BRANCH  18  19
ATOM     19  SD  SAM A 237      25.629   0.074   3.469  0.00  0.00    +0.000 S 
ATOM     20  CE  SAM A 237      24.979   1.310   2.319  0.00  0.00    +0.000 C 
BRANCH  19  21
ATOM     21  CG  SAM A 237      27.238  -0.384   2.731  0.00  0.00    +0.000 C 
BRANCH  21  22
ATOM     22  CB  SAM A 237      27.471  -1.911   2.799  0.00  0.00    +0.000 C 
BRANCH  22  24
ATOM     23  N   SAM A 237      27.567  -1.991   5.288  0.00  0.00    +0.000 NA
ATOM     24  CA  SAM A 237      28.304  -2.304   4.029  0.00  0.00    +0.000 C 
BRANCH  24  25
ATOM     25  C   SAM A 237      29.706  -1.684   4.052  0.00  0.00    +0.000 C 
ATOM     26  O   SAM A 237      30.695  -2.212   3.496  0.00  0.00    +0.000 OA
ATOM     27  OXT SAM A 237      29.873  -0.613   4.631  0.00  0.00    +0.000 OA
ENDBRANCH  24  25
ENDBRANCH  22  24
ENDBRANCH  21  22
ENDBRANCH  19  21
ENDBRANCH  18  19
ENDBRANCH   1  18
TORSDOF 7
ENDMDL
MODEL 7
REMARK VINA RESULT:      -4.3      1.739      2.101
REMARK  Name = ligand_pdbs\SAM.pdb
REMARK  7 active torsions:
REMARK  status: ('A' for Active; 'I' for Inactive)
REMARK    1  A    between atoms: CA_2  and  C_3
REMARK    2  A    between atoms: CA_2  and  CB_6
REMARK    3  A    between atoms: CB_6  and  CG_7
REMARK    4  A    between atoms: CG_7  and  SD_8
REMARK    5  A    between atoms: SD_8  and  C5'_10
REMARK    6  A    between atoms: C5'_10  and  C4'_11
REMARK    7  A    between atoms: C1'_17  and  N9_18
REMARK                            x       y       z     vdW  Elec       q    Type
REMARK                         _______ _______ _______ _____ _____    ______ ____
ROOT
ATOM      1  C4' SAM A 237      29.948   0.976   5.001  0.00  0.00    +0.000 C 
ATOM      2  O4' SAM A 237      29.318   2.035   4.286  0.00  0.00    +0.000 OA
ATOM      3  C3' SAM A 237      29.751   1.277   6.469  0.00  0.00    +0.000 C 
ATOM      4  O3' SAM A 237      30.807   0.741   7.240  0.00  0.00    +0.000 OA
ATOM      5  C2' SAM A 237      29.670   2.789   6.497  0.00  0.00    +0.000 C 
ATOM      6  O2' SAM A 237      30.978   3.351   6.505  0.00  0.00    +0.000 OA
ATOM      7  C1' SAM A 237      29.033   3.118   5.156  0.00  0.00    +0.000 C 
ENDROOT
BRANCH   7   8
ATOM      8  N9  SAM A 237      27.562   3.278   5.251  0.00  0.00    +0.000 N 
ATOM      9  C8  SAM A 237      26.688   2.362   5.793  0.00  0.00    +0.000 C 
ATOM     10  N7  SAM A 237      25.423   2.829   5.667  0.00  0.00    +0.000 NA
ATOM     11  C5  SAM A 237      25.491   4.029   5.026  0.00  0.00    +0.000 C 
ATOM     12  C6  SAM A 237      24.507   4.934   4.633  0.00  0.00    +0.000 C 
ATOM     13  N6  SAM A 237      23.221   4.722   4.870  0.00  0.00    +0.000 NA
ATOM     14  N1  SAM A 237      24.888   6.084   3.999  0.00  0.00    +0.000 NA
ATOM     15  C2  SAM A 237      26.215   6.347   3.733  0.00  0.00    +0.000 C 
ATOM     16  N3  SAM A 237      27.202   5.457   4.110  0.00  0.00    +0.000 NA
ATOM     17  C4  SAM A 237      26.825   4.305   4.743  0.00  0.00    +0.000 C 
ENDBRANCH   7   8
BRANCH   1  18
ATOM     18  C5' SAM A 237      29.350  -0.376   4.671  0.00  0.00    +0.000 C 
BRANCH  18  19
ATOM     19  SD  SAM A 237      29.826  -1.044   3.057  0.00  0.00    +0.000 S 
ATOM     20  CE  SAM A 237      29.786  -2.801   3.486  0.00  0.00    +0.000 C 
BRANCH  19  21
ATOM     21  CG  SAM A 237      28.314  -0.822   2.053  0.00  0.00    +0.000 C 
BRANCH  21  22
ATOM     22  CB  SAM A 237      27.339   0.175   2.721  0.00  0.00    +0.000 C 
BRANCH  22  24
ATOM     23  N   SAM A 237      24.990   0.470   3.502  0.00  0.00    +0.000 NA
ATOM     24  CA  SAM A 237      26.067  -0.525   3.226  0.00  0.00    +0.000 C 
BRANCH  24  25
ATOM     25  C   SAM A 237      26.299  -1.428   4.443  0.00  0.00    +0.000 C 
ATOM     26  O   SAM A 237      26.289  -1.001   5.620  0.00  0.00    +0.000 OA
ATOM     27  OXT SAM A 237      26.491  -2.628   4.266  0.00  0.00    +0.000 OA
ENDBRANCH  24  25
ENDBRANCH  22  24
ENDBRANCH  21  22
ENDBRANCH  19  21
ENDBRANCH  18  19
ENDBRANCH   1  18
TORSDOF 7
ENDMDL
MODEL 8
REMARK VINA RESULT:      -4.3      2.918      5.487
REMARK  Name = ligand_pdbs\SAM.pdb
REMARK  7 active torsions:
REMARK  status: ('A' for Active; 'I' for Inactive)
REMARK    1  A    between atoms: CA_2  and  C_3
REMARK    2  A    between atoms: CA_2  and  CB_6
REMARK    3  A    between atoms: CB_6  and  CG_7
REMARK    4  A    between atoms: CG_7  and  SD_8
REMARK    5  A    between atoms: SD_8  and  C5'_10
REMARK    6  A    between atoms: C5'_10  and  C4'_11
REMARK    7  A    between atoms: C1'_17  and  N9_18
REMARK                            x       y       z     vdW  Elec       q    Type
REMARK                         _______ _______ _______ _____ _____    ______ ____
ROOT
ATOM      1  C4' SAM A 237      25.376   5.865   5.189  0.00  0.00    +0.000 C 
ATOM      2  O4' SAM A 237      26.094   4.808   5.820  0.00  0.00    +0.000 OA
ATOM      3  C3' SAM A 237      26.344   6.529   4.238  0.00  0.00    +0.000 C 
ATOM      4  O3' SAM A 237      26.022   7.894   4.062  0.00  0.00    +0.000 OA
ATOM      5  C2' SAM A 237      27.685   6.289   4.898  0.00  0.00    +0.000 C 
ATOM      6  O2' SAM A 237      27.922   7.270   5.902  0.00  0.00    +0.000 OA
ATOM      7  C1' SAM A 237      27.486   4.952   5.594  0.00  0.00    +0.000 C 
ENDROOT
BRANCH   7   8
ATOM      8  N9  SAM A 237      27.956   3.809   4.774  0.00  0.00    +0.000 N 
ATOM      9  C8  SAM A 237      27.702   3.626   3.433  0.00  0.00    +0.000 C 
ATOM     10  N7  SAM A 237      28.252   2.454   3.035  0.00  0.00    +0.000 NA
ATOM     11  C5  SAM A 237      28.834   1.883   4.126  0.00  0.00    +0.000 C 
ATOM     12  C6  SAM A 237      29.528   0.686   4.295  0.00  0.00    +0.000 C 
ATOM     13  N6  SAM A 237      29.745  -0.150   3.290  0.00  0.00    +0.000 NA
ATOM     14  N1  SAM A 237      30.013   0.377   5.536  0.00  0.00    +0.000 NA
ATOM     15  C2  SAM A 237      29.812   1.217   6.611  0.00  0.00    +0.000 C 
ATOM     16  N3  SAM A 237      29.121   2.404   6.461  0.00  0.00    +0.000 NA
ATOM     17  C4  SAM A 237      28.633   2.716   5.222  0.00  0.00    +0.000 C 
ENDBRANCH   7   8
BRANCH   1  18
ATOM     18  C5' SAM A 237      24.168   5.363   4.425  0.00  0.00    +0.000 C 
BRANCH  18  19
ATOM     19  SD  SAM A 237      23.549   3.747   4.957  0.00  0.00    +0.000 S 
ATOM     20  CE  SAM A 237      21.881   3.874   4.269  0.00  0.00    +0.000 C 
BRANCH  19  21
ATOM     21  CG  SAM A 237      24.386   2.587   3.819  0.00  0.00    +0.000 C 
BRANCH  21  22
ATOM     22  CB  SAM A 237      25.013   1.401   4.589  0.00  0.00    +0.000 C 
BRANCH  22  24
ATOM     23  N   SAM A 237      25.420   0.450   2.322  0.00  0.00    +0.000 NA
ATOM     24  CA  SAM A 237      25.969   0.589   3.702  0.00  0.00    +0.000 C 
BRANCH  24  25
ATOM     25  C   SAM A 237      26.337  -0.782   4.281  0.00  0.00    +0.000 C 
ATOM     26  O   SAM A 237      26.570  -1.784   3.567  0.00  0.00    +0.000 OA
ATOM     27  OXT SAM A 237      26.421  -0.910   5.499  0.00  0.00    +0.000 OA
ENDBRANCH  24  25
ENDBRANCH  22  24
ENDBRANCH  21  22
ENDBRANCH  19  21
ENDBRANCH  18  19
ENDBRANCH   1  18
TORSDOF 7
ENDMDL
MODEL 9
REMARK VINA RESULT:      -4.0      3.258      5.858
REMARK  Name = ligand_pdbs\SAM.pdb
REMARK  7 active torsions:
REMARK  status: ('A' for Active; 'I' for Inactive)
REMARK    1  A    between atoms: CA_2  and  C_3
REMARK    2  A    between atoms: CA_2  and  CB_6
REMARK    3  A    between atoms: CB_6  and  CG_7
REMARK    4  A    between atoms: CG_7  and  SD_8
REMARK    5  A    between atoms: SD_8  and  C5'_10
REMARK    6  A    between atoms: C5'_10  and  C4'_11
REMARK    7  A    between atoms: C1'_17  and  N9_18
REMARK                            x       y       z     vdW  Elec       q    Type
REMARK                         _______ _______ _______ _____ _____    ______ ____
ROOT
ATOM      1  C4' SAM A 237      27.197   3.937   6.095  0.00  0.00    +0.000 C 
ATOM      2  O4' SAM A 237      27.361   2.690   6.765  0.00  0.00    +0.000 OA
ATOM      3  C3' SAM A 237      27.892   3.798   4.761  0.00  0.00    +0.000 C 
ATOM      4  O3' SAM A 237      28.369   5.049   4.309  0.00  0.00    +0.000 OA
ATOM      5  C2' SAM A 237      28.983   2.788   5.051  0.00  0.00    +0.000 C 
ATOM      6  O2' SAM A 237      30.112   3.435   5.628  0.00  0.00    +0.000 OA
ATOM      7  C1' SAM A 237      28.354   1.910   6.121  0.00  0.00    +0.000 C 
ENDROOT
BRANCH   7   8
ATOM      8  N9  SAM A 237      27.714   0.697   5.556  0.00  0.00    +0.000 N 
ATOM      9  C8  SAM A 237      26.380   0.372   5.659  0.00  0.00    +0.000 C 
ATOM     10  N7  SAM A 237      26.169  -0.825   5.061  0.00  0.00    +0.000 NA
ATOM     11  C5  SAM A 237      27.371  -1.270   4.599  0.00  0.00    +0.000 C 
ATOM     12  C6  SAM A 237      27.739  -2.431   3.921  0.00  0.00    +0.000 C 
ATOM     13  N6  SAM A 237      26.856  -3.362   3.589  0.00  0.00    +0.000 NA
ATOM     14  N1  SAM A 237      29.050  -2.601   3.574  0.00  0.00    +0.000 NA
ATOM     15  C2  SAM A 237      30.003  -1.659   3.898  0.00  0.00    +0.000 C 
ATOM     16  N3  SAM A 237      29.656  -0.506   4.576  0.00  0.00    +0.000 NA
ATOM     17  C4  SAM A 237      28.345  -0.332   4.926  0.00  0.00    +0.000 C 
ENDBRANCH   7   8
BRANCH   1  18
ATOM     18  C5' SAM A 237      25.739   4.285   5.880  0.00  0.00    +0.000 C 
BRANCH  18  19
ATOM     19  SD  SAM A 237      25.055   3.747   4.292  0.00  0.00    +0.000 S 
ATOM     20  CE  SAM A 237      24.049   2.372   4.901  0.00  0.00    +0.000 C 
BRANCH  19  21
ATOM     21  CG  SAM A 237      23.818   5.039   3.913  0.00  0.00    +0.000 C 
BRANCH  21  22
ATOM     22  CB  SAM A 237      23.855   6.175   4.962  0.00  0.00    +0.000 C 
BRANCH  22  24
ATOM     23  N   SAM A 237      25.361   7.079   3.193  0.00  0.00    +0.000 NA
ATOM     24  CA  SAM A 237      24.601   7.411   4.434  0.00  0.00    +0.000 C 
BRANCH  24  25
ATOM     25  C   SAM A 237      25.517   8.071   5.471  0.00  0.00    +0.000 C 
ATOM     26  O   SAM A 237      25.134   8.985   6.235  0.00  0.00    +0.000 OA
ATOM     27  OXT SAM A 237      26.678   7.684   5.572  0.00  0.00    +0.000 OA
ENDBRANCH  24  25
ENDBRANCH  22  24
ENDBRANCH  21  22
ENDBRANCH  19  21
ENDBRANCH  18  19
ENDBRANCH   1  18
TORSDOF 7
ENDMDL
