MODEL 1
REMARK VINA RESULT:      -3.4      0.000      0.000
REMARK  Name = ligand_pdbs\SNC.pdb
REMARK  4 active torsions:
REMARK  status: ('A' for Active; 'I' for Inactive)
REMARK    1  A    between atoms: CA_2  and  CB_3
REMARK    2  A    between atoms: CA_2  and  C_7
REMARK    3  A    between atoms: CB_3  and  SG_4
REMARK    4  A    between atoms: SG_4  and  ND_5
REMARK                            x       y       z     vdW  Elec       q    Type
REMARK                         _______ _______ _______ _____ _____    ______ ____
ROOT
ATOM      1  N   SNC B 686      27.240   5.064   3.355  0.00  0.00    +0.000 NA
ATOM      2  CA  SNC B 686      27.571   5.624   4.692  0.00  0.00    +0.000 C 
ENDROOT
BRANCH   2   3
ATOM      3  C   SNC B 686      27.641   4.404   5.587  0.00  0.00    +0.000 C 
ATOM      4  O   SNC B 686      27.094   3.320   5.249  0.00  0.00    +0.000 OA
ENDBRANCH   2   3
BRANCH   2   5
ATOM      5  CB  SNC B 686      26.510   6.743   5.056  0.00  0.00    +0.000 C 
BRANCH   5   6
ATOM      6  SG  SNC B 686      24.804   6.403   4.361  0.00  0.00    +0.000 S 
BRANCH   6   7
ATOM      7  ND  SNC B 686      24.109   5.072   5.034  0.00  0.00    +0.000 NA
ATOM      8  OE  SNC B 686      23.128   4.573   4.466  0.00  0.00    +0.000 OA
ENDBRANCH   6   7
ENDBRANCH   5   6
ENDBRANCH   2   5
TORSDOF 4
ENDMDL
MODEL 2
REMARK VINA RESULT:      -3.4      2.431      3.903
REMARK  Name = ligand_pdbs\SNC.pdb
REMARK  4 active torsions:
REMARK  status: ('A' for Active; 'I' for Inactive)
REMARK    1  A    between atoms: CA_2  and  CB_3
REMARK    2  A    between atoms: CA_2  and  C_7
REMARK    3  A    between atoms: CB_3  and  SG_4
REMARK    4  A    between atoms: SG_4  and  ND_5
REMARK                            x       y       z     vdW  Elec       q    Type
REMARK                         _______ _______ _______ _____ _____    ______ ____
ROOT
ATOM      1  N   SNC B 686      23.180   4.331   4.418  0.00  0.00    +0.000 NA
ATOM      2  CA  SNC B 686      24.278   4.985   5.177  0.00  0.00    +0.000 C 
ENDROOT
BRANCH   2   3
ATOM      3  C   SNC B 686      24.478   6.304   4.460  0.00  0.00    +0.000 C 
ATOM      4  O   SNC B 686      25.049   7.271   5.031  0.00  0.00    +0.000 OA
ENDBRANCH   2   3
BRANCH   2   5
ATOM      5  CB  SNC B 686      25.511   3.994   5.252  0.00  0.00    +0.000 C 
BRANCH   5   6
ATOM      6  SG  SNC B 686      26.396   3.785   3.614  0.00  0.00    +0.000 S 
BRANCH   6   7
ATOM      7  ND  SNC B 686      27.570   4.915   3.390  0.00  0.00    +0.000 NA
ATOM      8  OE  SNC B 686      27.953   5.566   4.372  0.00  0.00    +0.000 OA
ENDBRANCH   6   7
ENDBRANCH   5   6
ENDBRANCH   2   5
TORSDOF 4
ENDMDL
MODEL 3
REMARK VINA RESULT:      -3.3      2.147      2.367
REMARK  Name = ligand_pdbs\SNC.pdb
REMARK  4 active torsions:
REMARK  status: ('A' for Active; 'I' for Inactive)
REMARK    1  A    between atoms: CA_2  and  CB_3
REMARK    2  A    between atoms: CA_2  and  C_7
REMARK    3  A    between atoms: CB_3  and  SG_4
REMARK    4  A    between atoms: SG_4  and  ND_5
REMARK                            x       y       z     vdW  Elec       q    Type
REMARK                         _______ _______ _______ _____ _____    ______ ____
ROOT
ATOM      1  N   SNC B 686      27.918   4.371   5.561  0.00  0.00    +0.000 NA
ATOM      2  CA  SNC B 686      27.704   5.333   4.448  0.00  0.00    +0.000 C 
ENDROOT
BRANCH   2   3
ATOM      3  C   SNC B 686      27.351   6.627   5.151  0.00  0.00    +0.000 C 
ATOM      4  O   SNC B 686      26.398   7.345   4.746  0.00  0.00    +0.000 OA
ENDBRANCH   2   3
BRANCH   2   5
ATOM      5  CB  SNC B 686      26.638   4.727   3.444  0.00  0.00    +0.000 C 
BRANCH   5   6
ATOM      6  SG  SNC B 686      25.424   3.561   4.266  0.00  0.00    +0.000 S 
BRANCH   6   7
ATOM      7  ND  SNC B 686      24.336   4.357   5.210  0.00  0.00    +0.000 NA
ATOM      8  OE  SNC B 686      23.714   5.307   4.715  0.00  0.00    +0.000 OA
ENDBRANCH   6   7
ENDBRANCH   5   6
ENDBRANCH   2   5
TORSDOF 4
ENDMDL
MODEL 4
REMARK VINA RESULT:      -3.3      2.642      3.774
REMARK  Name = ligand_pdbs\SNC.pdb
REMARK  4 active torsions:
REMARK  status: ('A' for Active; 'I' for Inactive)
REMARK    1  A    between atoms: CA_2  and  CB_3
REMARK    2  A    between atoms: CA_2  and  C_7
REMARK    3  A    between atoms: CB_3  and  SG_4
REMARK    4  A    between atoms: SG_4  and  ND_5
REMARK                            x       y       z     vdW  Elec       q    Type
REMARK                         _______ _______ _______ _____ _____    ______ ____
ROOT
ATOM      1  N   SNC B 686      25.420   3.131   3.937  0.00  0.00    +0.000 NA
ATOM      2  CA  SNC B 686      24.943   3.573   5.274  0.00  0.00    +0.000 C 
ENDROOT
BRANCH   2   3
ATOM      3  C   SNC B 686      23.964   4.686   4.959  0.00  0.00    +0.000 C 
ATOM      4  O   SNC B 686      22.873   4.443   4.378  0.00  0.00    +0.000 OA
ENDBRANCH   2   3
BRANCH   2   5
ATOM      5  CB  SNC B 686      26.197   3.929   6.174  0.00  0.00    +0.000 C 
BRANCH   5   6
ATOM      6  SG  SNC B 686      27.764   4.206   5.188  0.00  0.00    +0.000 S 
BRANCH   6   7
ATOM      7  ND  SNC B 686      27.809   5.696   4.492  0.00  0.00    +0.000 NA
ATOM      8  OE  SNC B 686      27.426   6.666   5.159  0.00  0.00    +0.000 OA
ENDBRANCH   6   7
ENDBRANCH   5   6
ENDBRANCH   2   5
TORSDOF 4
ENDMDL
MODEL 5
REMARK VINA RESULT:      -3.3      2.165      3.744
REMARK  Name = ligand_pdbs\SNC.pdb
REMARK  4 active torsions:
REMARK  status: ('A' for Active; 'I' for Inactive)
REMARK    1  A    between atoms: CA_2  and  CB_3
REMARK    2  A    between atoms: CA_2  and  C_7
REMARK    3  A    between atoms: CB_3  and  SG_4
REMARK    4  A    between atoms: SG_4  and  ND_5
REMARK                            x       y       z     vdW  Elec       q    Type
REMARK                         _______ _______ _______ _____ _____    ______ ____
ROOT
ATOM      1  N   SNC B 686      24.704   2.529   5.094  0.00  0.00    +0.000 NA
ATOM      2  CA  SNC B 686      24.822   3.815   5.831  0.00  0.00    +0.000 C 
ENDROOT
BRANCH   2   3
ATOM      3  C   SNC B 686      24.050   4.795   4.973  0.00  0.00    +0.000 C 
ATOM      4  O   SNC B 686      22.990   4.447   4.386  0.00  0.00    +0.000 OA
ENDBRANCH   2   3
BRANCH   2   5
ATOM      5  CB  SNC B 686      26.355   4.116   6.094  0.00  0.00    +0.000 C 
BRANCH   5   6
ATOM      6  SG  SNC B 686      27.072   5.391   4.924  0.00  0.00    +0.000 S 
BRANCH   6   7
ATOM      7  ND  SNC B 686      27.518   4.735   3.483  0.00  0.00    +0.000 NA
ATOM      8  OE  SNC B 686      27.714   3.513   3.430  0.00  0.00    +0.000 OA
ENDBRANCH   6   7
ENDBRANCH   5   6
ENDBRANCH   2   5
TORSDOF 4
ENDMDL
MODEL 6
REMARK VINA RESULT:      -3.3      2.518      2.941
REMARK  Name = ligand_pdbs\SNC.pdb
REMARK  4 active torsions:
REMARK  status: ('A' for Active; 'I' for Inactive)
REMARK    1  A    between atoms: CA_2  and  CB_3
REMARK    2  A    between atoms: CA_2  and  C_7
REMARK    3  A    between atoms: CB_3  and  SG_4
REMARK    4  A    between atoms: SG_4  and  ND_5
REMARK                            x       y       z     vdW  Elec       q    Type
REMARK                         _______ _______ _______ _____ _____    ______ ____
ROOT
ATOM      1  N   SNC B 686      26.504   5.357   3.506  0.00  0.00    +0.000 NA
ATOM      2  CA  SNC B 686      25.536   6.279   4.157  0.00  0.00    +0.000 C 
ENDROOT
BRANCH   2   3
ATOM      3  C   SNC B 686      26.392   7.087   5.110  0.00  0.00    +0.000 C 
ATOM      4  O   SNC B 686      27.616   6.830   5.258  0.00  0.00    +0.000 OA
ENDBRANCH   2   3
BRANCH   2   5
ATOM      5  CB  SNC B 686      24.352   5.426   4.774  0.00  0.00    +0.000 C 
BRANCH   5   6
ATOM      6  SG  SNC B 686      24.865   3.696   5.275  0.00  0.00    +0.000 S 
BRANCH   6   7
ATOM      7  ND  SNC B 686      25.812   3.690   6.620  0.00  0.00    +0.000 NA
ATOM      8  OE  SNC B 686      27.041   3.672   6.471  0.00  0.00    +0.000 OA
ENDBRANCH   6   7
ENDBRANCH   5   6
ENDBRANCH   2   5
TORSDOF 4
ENDMDL
MODEL 7
REMARK VINA RESULT:      -3.3      2.315      2.549
REMARK  Name = ligand_pdbs\SNC.pdb
REMARK  4 active torsions:
REMARK  status: ('A' for Active; 'I' for Inactive)
REMARK    1  A    between atoms: CA_2  and  CB_3
REMARK    2  A    between atoms: CA_2  and  C_7
REMARK    3  A    between atoms: CB_3  and  SG_4
REMARK    4  A    between atoms: SG_4  and  ND_5
REMARK                            x       y       z     vdW  Elec       q    Type
REMARK                         _______ _______ _______ _____ _____    ______ ____
ROOT
ATOM      1  N   SNC B 686      26.279   3.813   6.455  0.00  0.00    +0.000 NA
ATOM      2  CA  SNC B 686      26.700   3.568   5.051  0.00  0.00    +0.000 C 
ENDROOT
BRANCH   2   3
ATOM      3  C   SNC B 686      27.869   4.511   4.855  0.00  0.00    +0.000 C 
ATOM      4  O   SNC B 686      27.821   5.433   3.997  0.00  0.00    +0.000 OA
ENDBRANCH   2   3
BRANCH   2   5
ATOM      5  CB  SNC B 686      25.445   3.746   4.100  0.00  0.00    +0.000 C 
BRANCH   5   6
ATOM      6  SG  SNC B 686      24.148   4.906   4.792  0.00  0.00    +0.000 S 
BRANCH   6   7
ATOM      7  ND  SNC B 686      24.460   6.480   4.429  0.00  0.00    +0.000 NA
ATOM      8  OE  SNC B 686      25.169   7.132   5.207  0.00  0.00    +0.000 OA
ENDBRANCH   6   7
ENDBRANCH   5   6
ENDBRANCH   2   5
TORSDOF 4
ENDMDL
MODEL 8
REMARK VINA RESULT:      -3.2      2.439      3.619
REMARK  Name = ligand_pdbs\SNC.pdb
REMARK  4 active torsions:
REMARK  status: ('A' for Active; 'I' for Inactive)
REMARK    1  A    between atoms: CA_2  and  CB_3
REMARK    2  A    between atoms: CA_2  and  C_7
REMARK    3  A    between atoms: CB_3  and  SG_4
REMARK    4  A    between atoms: SG_4  and  ND_5
REMARK                            x       y       z     vdW  Elec       q    Type
REMARK                         _______ _______ _______ _____ _____    ______ ____
ROOT
ATOM      1  N   SNC B 686      27.076   6.764   5.128  0.00  0.00    +0.000 NA
ATOM      2  CA  SNC B 686      26.263   5.952   4.185  0.00  0.00    +0.000 C 
ENDROOT
BRANCH   2   3
ATOM      3  C   SNC B 686      25.210   5.318   5.070  0.00  0.00    +0.000 C 
ATOM      4  O   SNC B 686      23.999   5.297   4.722  0.00  0.00    +0.000 OA
ENDBRANCH   2   3
BRANCH   2   5
ATOM      5  CB  SNC B 686      27.225   4.986   3.378  0.00  0.00    +0.000 C 
BRANCH   5   6
ATOM      6  SG  SNC B 686      27.469   3.322   4.204  0.00  0.00    +0.000 S 
BRANCH   6   7
ATOM      7  ND  SNC B 686      28.547   3.393   5.444  0.00  0.00    +0.000 NA
ATOM      8  OE  SNC B 686      28.137   3.748   6.558  0.00  0.00    +0.000 OA
ENDBRANCH   6   7
ENDBRANCH   5   6
ENDBRANCH   2   5
TORSDOF 4
ENDMDL
MODEL 9
REMARK VINA RESULT:      -3.2      2.644      3.004
REMARK  Name = ligand_pdbs\SNC.pdb
REMARK  4 active torsions:
REMARK  status: ('A' for Active; 'I' for Inactive)
REMARK    1  A    between atoms: CA_2  and  CB_3
REMARK    2  A    between atoms: CA_2  and  C_7
REMARK    3  A    between atoms: CB_3  and  SG_4
REMARK    4  A    between atoms: SG_4  and  ND_5
REMARK                            x       y       z     vdW  Elec       q    Type
REMARK                         _______ _______ _______ _____ _____    ______ ____
ROOT
ATOM      1  N   SNC B 686      23.592   4.651   4.738  0.00  0.00    +0.000 NA
ATOM      2  CA  SNC B 686      24.914   4.028   4.462  0.00  0.00    +0.000 C 
ENDROOT
BRANCH   2   3
ATOM      3  C   SNC B 686      25.251   3.309   5.752  0.00  0.00    +0.000 C 
ATOM      4  O   SNC B 686      26.061   3.807   6.578  0.00  0.00    +0.000 OA
ENDBRANCH   2   3
BRANCH   2   5
ATOM      5  CB  SNC B 686      25.914   5.150   3.963  0.00  0.00    +0.000 C 
BRANCH   5   6
ATOM      6  SG  SNC B 686      25.222   6.884   4.115  0.00  0.00    +0.000 S 
BRANCH   6   7
ATOM      7  ND  SNC B 686      25.818   7.682   5.424  0.00  0.00    +0.000 NA
ATOM      8  OE  SNC B 686      25.171   8.638   5.873  0.00  0.00    +0.000 OA
ENDBRANCH   6   7
ENDBRANCH   5   6
ENDBRANCH   2   5
TORSDOF 4
ENDMDL
