MODEL 1
REMARK VINA RESULT:      -2.8      0.000      0.000
REMARK  Name = ligand_pdbs\SO4_A_932 .pdb
REMARK  0 active torsions:
REMARK  status: ('A' for Active; 'I' for Inactive)
REMARK                            x       y       z     vdW  Elec       q    Type
REMARK                         _______ _______ _______ _____ _____    ______ ____
ROOT
ATOM      1  S   SO4 A 932      23.398  12.381  10.799  0.00  0.00    +0.000 S 
ATOM      2  O1  SO4 A 932      22.924  10.986  10.851  0.00  0.00    +0.000 OA
ATOM      3  O2  SO4 A 932      22.462  13.177   9.982  0.00  0.00    +0.000 OA
ATOM      4  O3  SO4 A 932      23.453  12.943  12.159  0.00  0.00    +0.000 OA
ATOM      5  O4  SO4 A 932      24.743  12.425  10.195  0.00  0.00    +0.000 OA
ENDROOT
TORSDOF 0
ENDMDL
MODEL 2
REMARK VINA RESULT:      -2.8      0.146      2.160
REMARK  Name = ligand_pdbs\SO4_A_932 .pdb
REMARK  0 active torsions:
REMARK  status: ('A' for Active; 'I' for Inactive)
REMARK                            x       y       z     vdW  Elec       q    Type
REMARK                         _______ _______ _______ _____ _____    ______ ____
ROOT
ATOM      1  S   SO4 A 932      23.483  12.348  10.740  0.00  0.00    +0.000 S 
ATOM      2  O1  SO4 A 932      23.481  12.805  12.142  0.00  0.00    +0.000 OA
ATOM      3  O2  SO4 A 932      24.849  12.468  10.196  0.00  0.00    +0.000 OA
ATOM      4  O3  SO4 A 932      23.056  10.940  10.672  0.00  0.00    +0.000 OA
ATOM      5  O4  SO4 A 932      22.559  13.180   9.947  0.00  0.00    +0.000 OA
ENDROOT
TORSDOF 0
ENDMDL
MODEL 3
REMARK VINA RESULT:      -2.6      9.125     10.007
REMARK  Name = ligand_pdbs\SO4_A_932 .pdb
REMARK  0 active torsions:
REMARK  status: ('A' for Active; 'I' for Inactive)
REMARK                            x       y       z     vdW  Elec       q    Type
REMARK                         _______ _______ _______ _____ _____    ______ ____
ROOT
ATOM      1  S   SO4 A 932      24.338   4.649   4.868  0.00  0.00    +0.000 S 
ATOM      2  O1  SO4 A 932      25.319   4.063   3.936  0.00  0.00    +0.000 OA
ATOM      3  O2  SO4 A 932      24.512   4.035   6.198  0.00  0.00    +0.000 OA
ATOM      4  O3  SO4 A 932      24.552   6.102   4.973  0.00  0.00    +0.000 OA
ATOM      5  O4  SO4 A 932      22.972   4.388   4.376  0.00  0.00    +0.000 OA
ENDROOT
TORSDOF 0
ENDMDL
MODEL 4
REMARK VINA RESULT:      -2.6      9.123      9.972
REMARK  Name = ligand_pdbs\SO4_A_932 .pdb
REMARK  0 active torsions:
REMARK  status: ('A' for Active; 'I' for Inactive)
REMARK                            x       y       z     vdW  Elec       q    Type
REMARK                         _______ _______ _______ _____ _____    ______ ____
ROOT
ATOM      1  S   SO4 A 932      24.338   4.649   4.874  0.00  0.00    +0.000 S 
ATOM      2  O1  SO4 A 932      24.514   4.030   6.201  0.00  0.00    +0.000 OA
ATOM      3  O2  SO4 A 932      25.316   4.065   3.937  0.00  0.00    +0.000 OA
ATOM      4  O3  SO4 A 932      22.976   4.389   4.377  0.00  0.00    +0.000 OA
ATOM      5  O4  SO4 A 932      24.555   6.104   4.974  0.00  0.00    +0.000 OA
ENDROOT
TORSDOF 0
ENDMDL
MODEL 5
REMARK VINA RESULT:      -2.6      9.118     10.015
REMARK  Name = ligand_pdbs\SO4_A_932 .pdb
REMARK  0 active torsions:
REMARK  status: ('A' for Active; 'I' for Inactive)
REMARK                            x       y       z     vdW  Elec       q    Type
REMARK                         _______ _______ _______ _____ _____    ______ ____
ROOT
ATOM      1  S   SO4 A 932      24.340   4.658   4.873  0.00  0.00    +0.000 S 
ATOM      2  O1  SO4 A 932      24.554   6.114   4.970  0.00  0.00    +0.000 OA
ATOM      3  O2  SO4 A 932      25.327   4.088   3.937  0.00  0.00    +0.000 OA
ATOM      4  O3  SO4 A 932      24.510   4.036   6.197  0.00  0.00    +0.000 OA
ATOM      5  O4  SO4 A 932      22.976   4.392   4.377  0.00  0.00    +0.000 OA
ENDROOT
TORSDOF 0
ENDMDL
MODEL 6
REMARK VINA RESULT:      -2.6      9.113      9.848
REMARK  Name = ligand_pdbs\SO4_A_932 .pdb
REMARK  0 active torsions:
REMARK  status: ('A' for Active; 'I' for Inactive)
REMARK                            x       y       z     vdW  Elec       q    Type
REMARK                         _______ _______ _______ _____ _____    ______ ____
ROOT
ATOM      1  S   SO4 A 932      24.354   4.664   4.874  0.00  0.00    +0.000 S 
ATOM      2  O1  SO4 A 932      24.511   4.038   6.200  0.00  0.00    +0.000 OA
ATOM      3  O2  SO4 A 932      22.988   4.409   4.380  0.00  0.00    +0.000 OA
ATOM      4  O3  SO4 A 932      24.568   6.118   4.979  0.00  0.00    +0.000 OA
ATOM      5  O4  SO4 A 932      25.336   4.090   3.936  0.00  0.00    +0.000 OA
ENDROOT
TORSDOF 0
ENDMDL
MODEL 7
REMARK VINA RESULT:      -2.5      9.082      9.862
REMARK  Name = ligand_pdbs\SO4_A_932 .pdb
REMARK  0 active torsions:
REMARK  status: ('A' for Active; 'I' for Inactive)
REMARK                            x       y       z     vdW  Elec       q    Type
REMARK                         _______ _______ _______ _____ _____    ______ ____
ROOT
ATOM      1  S   SO4 A 932      26.925   5.877   4.626  0.00  0.00    +0.000 S 
ATOM      2  O1  SO4 A 932      25.777   6.415   3.875  0.00  0.00    +0.000 OA
ATOM      3  O2  SO4 A 932      26.435   4.915   5.631  0.00  0.00    +0.000 OA
ATOM      4  O3  SO4 A 932      27.850   5.192   3.707  0.00  0.00    +0.000 OA
ATOM      5  O4  SO4 A 932      27.634   6.981   5.302  0.00  0.00    +0.000 OA
ENDROOT
TORSDOF 0
ENDMDL
MODEL 8
REMARK VINA RESULT:      -2.5      9.079      9.666
REMARK  Name = ligand_pdbs\SO4_A_932 .pdb
REMARK  0 active torsions:
REMARK  status: ('A' for Active; 'I' for Inactive)
REMARK                            x       y       z     vdW  Elec       q    Type
REMARK                         _______ _______ _______ _____ _____    ______ ____
ROOT
ATOM      1  S   SO4 A 932      26.924   5.876   4.632  0.00  0.00    +0.000 S 
ATOM      2  O1  SO4 A 932      26.429   4.916   5.636  0.00  0.00    +0.000 OA
ATOM      3  O2  SO4 A 932      25.779   6.419   3.878  0.00  0.00    +0.000 OA
ATOM      4  O3  SO4 A 932      27.632   6.980   5.302  0.00  0.00    +0.000 OA
ATOM      5  O4  SO4 A 932      27.847   5.192   3.707  0.00  0.00    +0.000 OA
ENDROOT
TORSDOF 0
ENDMDL
MODEL 9
REMARK VINA RESULT:      -2.5      7.937      8.583
REMARK  Name = ligand_pdbs\SO4_A_932 .pdb
REMARK  0 active torsions:
REMARK  status: ('A' for Active; 'I' for Inactive)
REMARK                            x       y       z     vdW  Elec       q    Type
REMARK                         _______ _______ _______ _____ _____    ______ ____
ROOT
ATOM      1  S   SO4 A 932      25.459   6.902   4.752  0.00  0.00    +0.000 S 
ATOM      2  O1  SO4 A 932      26.878   6.535   4.913  0.00  0.00    +0.000 OA
ATOM      3  O2  SO4 A 932      24.618   5.767   5.176  0.00  0.00    +0.000 OA
ATOM      4  O3  SO4 A 932      25.147   8.076   5.584  0.00  0.00    +0.000 OA
ATOM      5  O4  SO4 A 932      25.188   7.217   3.337  0.00  0.00    +0.000 OA
ENDROOT
TORSDOF 0
ENDMDL
