MODEL 1
REMARK VINA RESULT:      -9.2      0.000      0.000
REMARK  Name = ligand_pdbs\STR.pdb
REMARK  4 active torsions:
REMARK  status: ('A' for Active; 'I' for Inactive)
REMARK    1  A    between atoms: C10_11  and  C19_20
REMARK    2  A    between atoms: C13_14  and  C18_19
REMARK    3  A    between atoms: C17_18  and  C20_21
REMARK    4  A    between atoms: C20_21  and  C21_23
REMARK                            x       y       z     vdW  Elec       q    Type
REMARK                         _______ _______ _______ _____ _____    ______ ____
ROOT
ATOM      1  C1  STR A1001      27.850   5.423   4.693  0.00  0.00    +0.000 C 
ATOM      2  C2  STR A1001      27.370   6.801   5.155  0.00  0.00    +0.000 C 
ATOM      3  C3  STR A1001      26.074   7.077   4.634  0.00  0.00    +0.000 C 
ATOM      4  O3  STR A1001      25.724   8.164   4.226  0.00  0.00    +0.000 OA
ATOM      5  C4  STR A1001      25.102   5.985   4.450  0.00  0.00    +0.000 C 
ATOM      6  C5  STR A1001      25.533   4.555   4.760  0.00  0.00    +0.000 C 
ATOM      7  C6  STR A1001      24.502   3.572   4.716  0.00  0.00    +0.000 C 
ATOM      8  C7  STR A1001      25.116   2.167   4.056  0.00  0.00    +0.000 C 
ATOM      9  C8  STR A1001      26.263   1.788   4.460  0.00  0.00    +0.000 C 
ATOM     10  C9  STR A1001      27.255   2.900   4.323  0.00  0.00    +0.000 C 
ATOM     11  C10 STR A1001      26.827   4.256   5.089  0.00  0.00    +0.000 C 
ATOM     12  C11 STR A1001      28.704   2.442   4.655  0.00  0.00    +0.000 C 
ATOM     13  C12 STR A1001      29.078   1.315   4.066  0.00  0.00    +0.000 C 
ATOM     14  C13 STR A1001      28.164   0.254   4.193  0.00  0.00    +0.000 C 
ATOM     15  C14 STR A1001      26.667   0.873   3.943  0.00  0.00    +0.000 C 
ATOM     16  C15 STR A1001      25.787  -0.575   3.851  0.00  0.00    +0.000 C 
ATOM     17  C16 STR A1001      26.863  -1.856   3.376  0.00  0.00    +0.000 C 
ATOM     18  C17 STR A1001      28.289  -1.153   3.200  0.00  0.00    +0.000 C 
ATOM     19  C18 STR A1001      28.196  -0.327   5.644  0.00  0.00    +0.000 C 
ATOM     20  C19 STR A1001      26.894   4.090   6.614  0.00  0.00    +0.000 C 
ENDROOT
BRANCH  18  21
ATOM     21  C20 STR A1001      29.368  -1.968   3.485  0.00  0.00    +0.000 C 
ATOM     22  O20 STR A1001      29.269  -3.118   3.861  0.00  0.00    +0.000 OA
ATOM     23  C21 STR A1001      30.795  -1.508   3.275  0.00  0.00    +0.000 C 
ENDBRANCH  18  21
TORSDOF 1
ENDMDL
MODEL 2
REMARK VINA RESULT:      -8.9      1.419      2.845
REMARK  Name = ligand_pdbs\STR.pdb
REMARK  4 active torsions:
REMARK  status: ('A' for Active; 'I' for Inactive)
REMARK    1  A    between atoms: C10_11  and  C19_20
REMARK    2  A    between atoms: C13_14  and  C18_19
REMARK    3  A    between atoms: C17_18  and  C20_21
REMARK    4  A    between atoms: C20_21  and  C21_23
REMARK                            x       y       z     vdW  Elec       q    Type
REMARK                         _______ _______ _______ _____ _____    ______ ____
ROOT
ATOM      1  C1  STR A1001      24.601   5.189   4.488  0.00  0.00    +0.000 C 
ATOM      2  C2  STR A1001      24.239   6.660   4.270  0.00  0.00    +0.000 C 
ATOM      3  C3  STR A1001      25.002   7.494   5.136  0.00  0.00    +0.000 C 
ATOM      4  O3  STR A1001      24.560   8.474   5.698  0.00  0.00    +0.000 OA
ATOM      5  C4  STR A1001      26.383   7.124   5.494  0.00  0.00    +0.000 C 
ATOM      6  C5  STR A1001      26.948   5.804   4.980  0.00  0.00    +0.000 C 
ATOM      7  C6  STR A1001      28.334   5.584   5.226  0.00  0.00    +0.000 C 
ATOM      8  C7  STR A1001      28.573   3.974   5.598  0.00  0.00    +0.000 C 
ATOM      9  C8  STR A1001      27.968   3.115   4.877  0.00  0.00    +0.000 C 
ATOM     10  C9  STR A1001      26.505   3.422   4.824  0.00  0.00    +0.000 C 
ATOM     11  C10 STR A1001      26.167   4.912   4.297  0.00  0.00    +0.000 C 
ATOM     12  C11 STR A1001      25.697   2.316   4.085  0.00  0.00    +0.000 C 
ATOM     13  C12 STR A1001      25.972   1.078   4.471  0.00  0.00    +0.000 C 
ATOM     14  C13 STR A1001      27.342   0.766   4.518  0.00  0.00    +0.000 C 
ATOM     15  C14 STR A1001      28.106   2.046   5.201  0.00  0.00    +0.000 C 
ATOM     16  C15 STR A1001      29.641   1.359   5.421  0.00  0.00    +0.000 C 
ATOM     17  C16 STR A1001      29.476  -0.371   5.500  0.00  0.00    +0.000 C 
ATOM     18  C17 STR A1001      27.908  -0.642   5.339  0.00  0.00    +0.000 C 
ATOM     19  C18 STR A1001      27.914   0.595   3.074  0.00  0.00    +0.000 C 
ATOM     20  C19 STR A1001      26.478   5.067   2.802  0.00  0.00    +0.000 C 
ENDROOT
BRANCH  18  21
ATOM     21  C20 STR A1001      27.595  -1.838   4.720  0.00  0.00    +0.000 C 
ATOM     22  O20 STR A1001      26.516  -2.387   4.810  0.00  0.00    +0.000 OA
ATOM     23  C21 STR A1001      28.569  -2.539   3.797  0.00  0.00    +0.000 C 
ENDBRANCH  18  21
TORSDOF 1
ENDMDL
MODEL 3
REMARK VINA RESULT:      -8.7      1.191      7.068
REMARK  Name = ligand_pdbs\STR.pdb
REMARK  4 active torsions:
REMARK  status: ('A' for Active; 'I' for Inactive)
REMARK    1  A    between atoms: C10_11  and  C19_20
REMARK    2  A    between atoms: C13_14  and  C18_19
REMARK    3  A    between atoms: C17_18  and  C20_21
REMARK    4  A    between atoms: C20_21  and  C21_23
REMARK                            x       y       z     vdW  Elec       q    Type
REMARK                         _______ _______ _______ _____ _____    ______ ____
ROOT
ATOM      1  C1  STR A1001      27.411  -0.405   2.972  0.00  0.00    +0.000 C 
ATOM      2  C2  STR A1001      27.720  -1.901   3.054  0.00  0.00    +0.000 C 
ATOM      3  C3  STR A1001      29.027  -2.111   3.579  0.00  0.00    +0.000 C 
ATOM      4  O3  STR A1001      29.792  -2.962   3.177  0.00  0.00    +0.000 OA
ATOM      5  C4  STR A1001      29.573  -1.192   4.594  0.00  0.00    +0.000 C 
ATOM      6  C5  STR A1001      28.746   0.018   5.013  0.00  0.00    +0.000 C 
ATOM      7  C6  STR A1001      29.258   0.772   6.109  0.00  0.00    +0.000 C 
ATOM      8  C7  STR A1001      28.990   2.395   5.828  0.00  0.00    +0.000 C 
ATOM      9  C8  STR A1001      27.844   2.726   5.381  0.00  0.00    +0.000 C 
ATOM     10  C9  STR A1001      27.513   1.927   4.159  0.00  0.00    +0.000 C 
ATOM     11  C10 STR A1001      27.570   0.329   4.387  0.00  0.00    +0.000 C 
ATOM     12  C11 STR A1001      26.194   2.402   3.484  0.00  0.00    +0.000 C 
ATOM     13  C12 STR A1001      26.101   3.712   3.310  0.00  0.00    +0.000 C 
ATOM     14  C13 STR A1001      26.397   4.480   4.449  0.00  0.00    +0.000 C 
ATOM     15  C14 STR A1001      27.727   3.820   5.145  0.00  0.00    +0.000 C 
ATOM     16  C15 STR A1001      28.067   5.031   6.283  0.00  0.00    +0.000 C 
ATOM     17  C16 STR A1001      27.384   6.531   5.727  0.00  0.00    +0.000 C 
ATOM     18  C17 STR A1001      26.694   6.176   4.329  0.00  0.00    +0.000 C 
ATOM     19  C18 STR A1001      25.233   4.392   5.488  0.00  0.00    +0.000 C 
ATOM     20  C19 STR A1001      26.422  -0.156   5.283  0.00  0.00    +0.000 C 
ENDROOT
BRANCH  18  21
ATOM     21  C20 STR A1001      25.580   6.939   4.030  0.00  0.00    +0.000 C 
ATOM     22  O20 STR A1001      25.004   6.911   2.962  0.00  0.00    +0.000 OA
ATOM     23  C21 STR A1001      24.927   7.836   5.060  0.00  0.00    +0.000 C 
ENDBRANCH  18  21
TORSDOF 1
ENDMDL
MODEL 4
REMARK VINA RESULT:      -7.7      1.257      6.807
REMARK  Name = ligand_pdbs\STR.pdb
REMARK  4 active torsions:
REMARK  status: ('A' for Active; 'I' for Inactive)
REMARK    1  A    between atoms: C10_11  and  C19_20
REMARK    2  A    between atoms: C13_14  and  C18_19
REMARK    3  A    between atoms: C17_18  and  C20_21
REMARK    4  A    between atoms: C20_21  and  C21_23
REMARK                            x       y       z     vdW  Elec       q    Type
REMARK                         _______ _______ _______ _____ _____    ______ ____
ROOT
ATOM      1  C1  STR A1001      28.440  -0.058   4.585  0.00  0.00    +0.000 C 
ATOM      2  C2  STR A1001      28.674  -1.517   4.190  0.00  0.00    +0.000 C 
ATOM      3  C3  STR A1001      27.493  -2.285   4.397  0.00  0.00    +0.000 C 
ATOM      4  O3  STR A1001      27.487  -3.417   4.833  0.00  0.00    +0.000 OA
ATOM      5  C4  STR A1001      26.168  -1.674   4.192  0.00  0.00    +0.000 C 
ATOM      6  C5  STR A1001      26.087  -0.196   3.828  0.00  0.00    +0.000 C 
ATOM      7  C6  STR A1001      24.791   0.290   3.487  0.00  0.00    +0.000 C 
ATOM      8  C7  STR A1001      24.607   1.831   4.102  0.00  0.00    +0.000 C 
ATOM      9  C8  STR A1001      25.584   2.635   3.959  0.00  0.00    +0.000 C 
ATOM     10  C9  STR A1001      26.845   2.017   4.478  0.00  0.00    +0.000 C 
ATOM     11  C10 STR A1001      27.203   0.594   3.802  0.00  0.00    +0.000 C 
ATOM     12  C11 STR A1001      28.038   3.016   4.469  0.00  0.00    +0.000 C 
ATOM     13  C12 STR A1001      27.769   4.205   4.990  0.00  0.00    +0.000 C 
ATOM     14  C13 STR A1001      26.595   4.807   4.506  0.00  0.00    +0.000 C 
ATOM     15  C14 STR A1001      25.444   3.641   4.443  0.00  0.00    +0.000 C 
ATOM     16  C15 STR A1001      24.090   4.613   4.130  0.00  0.00    +0.000 C 
ATOM     17  C16 STR A1001      24.412   6.224   4.700  0.00  0.00    +0.000 C 
ATOM     18  C17 STR A1001      25.886   6.156   5.317  0.00  0.00    +0.000 C 
ATOM     19  C18 STR A1001      26.808   5.334   3.050  0.00  0.00    +0.000 C 
ATOM     20  C19 STR A1001      27.628   0.756   2.336  0.00  0.00    +0.000 C 
ENDROOT
BRANCH  18  21
ATOM     21  C20 STR A1001      26.603   7.334   5.216  0.00  0.00    +0.000 C 
ATOM     22  O20 STR A1001      27.769   7.448   5.536  0.00  0.00    +0.000 OA
ATOM     23  C21 STR A1001      26.003   8.586   4.614  0.00  0.00    +0.000 C 
ENDBRANCH  18  21
TORSDOF 1
ENDMDL
