MODEL 1
REMARK VINA RESULT:     -10.1      0.000      0.000
REMARK  Name = ligand_pdbs\TES.pdb
REMARK  0 active torsions:
REMARK  status: ('A' for Active; 'I' for Inactive)
REMARK                            x       y       z     vdW  Elec       q    Type
REMARK                         _______ _______ _______ _____ _____    ______ ____
ROOT
ATOM      1  C1  TES A1000      27.401   5.162   4.402  0.00  0.00    +0.000 C 
ATOM      2  C2  TES A1000      26.632   6.466   4.722  0.00  0.00    +0.000 C 
ATOM      3  C3  TES A1000      25.225   6.418   4.198  0.00  0.00    +0.000 C 
ATOM      4  O3  TES A1000      24.602   7.480   3.695  0.00  0.00    +0.000 OA
ATOM      5  C4  TES A1000      24.545   5.130   4.256  0.00  0.00    +0.000 C 
ATOM      6  C5  TES A1000      25.164   3.953   4.590  0.00  0.00    +0.000 C 
ATOM      7  C6  TES A1000      24.354   2.667   4.639  0.00  0.00    +0.000 C 
ATOM      8  C7  TES A1000      25.026   1.507   3.892  0.00  0.00    +0.000 C 
ATOM      9  C8  TES A1000      26.473   1.306   4.431  0.00  0.00    +0.000 C 
ATOM     10  C9  TES A1000      27.321   2.604   4.265  0.00  0.00    +0.000 C 
ATOM     11  C10 TES A1000      26.697   3.869   4.955  0.00  0.00    +0.000 C 
ATOM     12  C11 TES A1000      28.828   2.488   4.724  0.00  0.00    +0.000 C 
ATOM     13  C12 TES A1000      29.493   1.259   4.060  0.00  0.00    +0.000 C 
ATOM     14  C13 TES A1000      28.688  -0.054   4.276  0.00  0.00    +0.000 C 
ATOM     15  C14 TES A1000      27.244   0.169   3.716  0.00  0.00    +0.000 C 
ATOM     16  C15 TES A1000      26.619  -1.252   3.692  0.00  0.00    +0.000 C 
ATOM     17  C16 TES A1000      27.826  -2.180   3.421  0.00  0.00    +0.000 C 
ATOM     18  C17 TES A1000      29.070  -1.251   3.357  0.00  0.00    +0.000 C 
ATOM     19  O17 TES A1000      30.250  -1.931   3.831  0.00  0.00    +0.000 OA
ATOM     20  C18 TES A1000      28.705  -0.463   5.802  0.00  0.00    +0.000 C 
ATOM     21  C19 TES A1000      26.791   3.814   6.508  0.00  0.00    +0.000 C 
ENDROOT
TORSDOF 0
ENDMDL
MODEL 2
REMARK VINA RESULT:      -9.4      1.572      2.970
REMARK  Name = ligand_pdbs\TES.pdb
REMARK  0 active torsions:
REMARK  status: ('A' for Active; 'I' for Inactive)
REMARK                            x       y       z     vdW  Elec       q    Type
REMARK                         _______ _______ _______ _____ _____    ______ ____
ROOT
ATOM      1  C1  TES A1000      24.725   5.262   4.111  0.00  0.00    +0.000 C 
ATOM      2  C2  TES A1000      24.639   6.805   4.034  0.00  0.00    +0.000 C 
ATOM      3  C3  TES A1000      25.396   7.456   5.157  0.00  0.00    +0.000 C 
ATOM      4  O3  TES A1000      24.984   8.567   5.760  0.00  0.00    +0.000 OA
ATOM      5  C4  TES A1000      26.632   6.809   5.579  0.00  0.00    +0.000 C 
ATOM      6  C5  TES A1000      27.038   5.575   5.138  0.00  0.00    +0.000 C 
ATOM      7  C6  TES A1000      28.358   5.001   5.628  0.00  0.00    +0.000 C 
ATOM      8  C7  TES A1000      28.238   3.548   6.107  0.00  0.00    +0.000 C 
ATOM      9  C8  TES A1000      27.605   2.677   4.983  0.00  0.00    +0.000 C 
ATOM     10  C9  TES A1000      26.200   3.217   4.576  0.00  0.00    +0.000 C 
ATOM     11  C10 TES A1000      26.201   4.718   4.111  0.00  0.00    +0.000 C 
ATOM     12  C11 TES A1000      25.440   2.366   3.483  0.00  0.00    +0.000 C 
ATOM     13  C12 TES A1000      25.402   0.878   3.901  0.00  0.00    +0.000 C 
ATOM     14  C13 TES A1000      26.808   0.310   4.246  0.00  0.00    +0.000 C 
ATOM     15  C14 TES A1000      27.417   1.193   5.385  0.00  0.00    +0.000 C 
ATOM     16  C15 TES A1000      28.656   0.393   5.870  0.00  0.00    +0.000 C 
ATOM     17  C16 TES A1000      28.247  -1.083   5.654  0.00  0.00    +0.000 C 
ATOM     18  C17 TES A1000      26.831  -1.043   5.016  0.00  0.00    +0.000 C 
ATOM     19  O17 TES A1000      26.628  -2.162   4.131  0.00  0.00    +0.000 OA
ATOM     20  C18 TES A1000      27.711   0.258   2.951  0.00  0.00    +0.000 C 
ATOM     21  C19 TES A1000      26.859   4.914   2.714  0.00  0.00    +0.000 C 
ENDROOT
TORSDOF 0
ENDMDL
MODEL 3
REMARK VINA RESULT:      -9.1      1.124      6.623
REMARK  Name = ligand_pdbs\TES.pdb
REMARK  0 active torsions:
REMARK  status: ('A' for Active; 'I' for Inactive)
REMARK                            x       y       z     vdW  Elec       q    Type
REMARK                         _______ _______ _______ _____ _____    ______ ____
ROOT
ATOM      1  C1  TES A1000      27.538  -0.225   2.901  0.00  0.00    +0.000 C 
ATOM      2  C2  TES A1000      28.014  -1.686   3.078  0.00  0.00    +0.000 C 
ATOM      3  C3  TES A1000      29.330  -1.753   3.800  0.00  0.00    +0.000 C 
ATOM      4  O3  TES A1000      30.271  -2.646   3.510  0.00  0.00    +0.000 OA
ATOM      5  C4  TES A1000      29.550  -0.774   4.857  0.00  0.00    +0.000 C 
ATOM      6  C5  TES A1000      28.716   0.287   5.104  0.00  0.00    +0.000 C 
ATOM      7  C6  TES A1000      29.030   1.238   6.248  0.00  0.00    +0.000 C 
ATOM      8  C7  TES A1000      28.951   2.714   5.838  0.00  0.00    +0.000 C 
ATOM      9  C8  TES A1000      27.561   3.007   5.201  0.00  0.00    +0.000 C 
ATOM     10  C9  TES A1000      27.309   2.099   3.959  0.00  0.00    +0.000 C 
ATOM     11  C10 TES A1000      27.412   0.561   4.258  0.00  0.00    +0.000 C 
ATOM     12  C11 TES A1000      25.949   2.360   3.198  0.00  0.00    +0.000 C 
ATOM     13  C12 TES A1000      25.803   3.864   2.869  0.00  0.00    +0.000 C 
ATOM     14  C13 TES A1000      25.988   4.776   4.115  0.00  0.00    +0.000 C 
ATOM     15  C14 TES A1000      27.396   4.473   4.729  0.00  0.00    +0.000 C 
ATOM     16  C15 TES A1000      27.619   5.614   5.758  0.00  0.00    +0.000 C 
ATOM     17  C16 TES A1000      26.870   6.818   5.139  0.00  0.00    +0.000 C 
ATOM     18  C17 TES A1000      26.223   6.288   3.830  0.00  0.00    +0.000 C 
ATOM     19  O17 TES A1000      24.987   6.974   3.547  0.00  0.00    +0.000 OA
ATOM     20  C18 TES A1000      24.805   4.553   5.138  0.00  0.00    +0.000 C 
ATOM     21  C19 TES A1000      26.211   0.028   5.092  0.00  0.00    +0.000 C 
ENDROOT
TORSDOF 0
ENDMDL
MODEL 4
REMARK VINA RESULT:      -8.4      1.484      6.317
REMARK  Name = ligand_pdbs\TES.pdb
REMARK  0 active torsions:
REMARK  status: ('A' for Active; 'I' for Inactive)
REMARK                            x       y       z     vdW  Elec       q    Type
REMARK                         _______ _______ _______ _____ _____    ______ ____
ROOT
ATOM      1  C1  TES A1000      28.126   0.310   5.310  0.00  0.00    +0.000 C 
ATOM      2  C2  TES A1000      28.400  -1.171   4.960  0.00  0.00    +0.000 C 
ATOM      3  C3  TES A1000      27.122  -1.929   4.734  0.00  0.00    +0.000 C 
ATOM      4  O3  TES A1000      26.957  -3.196   5.102  0.00  0.00    +0.000 OA
ATOM      5  C4  TES A1000      26.036  -1.208   4.083  0.00  0.00    +0.000 C 
ATOM      6  C5  TES A1000      26.056   0.140   3.831  0.00  0.00    +0.000 C 
ATOM      7  C6  TES A1000      24.875   0.789   3.126  0.00  0.00    +0.000 C 
ATOM      8  C7  TES A1000      24.386   2.063   3.827  0.00  0.00    +0.000 C 
ATOM      9  C8  TES A1000      25.575   3.053   4.004  0.00  0.00    +0.000 C 
ATOM     10  C9  TES A1000      26.728   2.405   4.830  0.00  0.00    +0.000 C 
ATOM     11  C10 TES A1000      27.275   1.063   4.222  0.00  0.00    +0.000 C 
ATOM     12  C11 TES A1000      27.961   3.348   5.122  0.00  0.00    +0.000 C 
ATOM     13  C12 TES A1000      27.476   4.684   5.733  0.00  0.00    +0.000 C 
ATOM     14  C13 TES A1000      26.370   5.372   4.883  0.00  0.00    +0.000 C 
ATOM     15  C14 TES A1000      25.183   4.364   4.730  0.00  0.00    +0.000 C 
ATOM     16  C15 TES A1000      24.027   5.219   4.145  0.00  0.00    +0.000 C 
ATOM     17  C16 TES A1000      24.272   6.625   4.743  0.00  0.00    +0.000 C 
ATOM     18  C17 TES A1000      25.571   6.508   5.586  0.00  0.00    +0.000 C 
ATOM     19  O17 TES A1000      26.303   7.750   5.588  0.00  0.00    +0.000 OA
ATOM     20  C18 TES A1000      26.962   5.848   3.497  0.00  0.00    +0.000 C 
ATOM     21  C19 TES A1000      28.110   1.285   2.928  0.00  0.00    +0.000 C 
ENDROOT
TORSDOF 0
ENDMDL
