MODEL 1
REMARK VINA RESULT:     -10.1      0.000      0.000
REMARK  Name = ligand_pdbs\TES_A_1000 .pdb
REMARK  0 active torsions:
REMARK  status: ('A' for Active; 'I' for Inactive)
REMARK                            x       y       z     vdW  Elec       q    Type
REMARK                         _______ _______ _______ _____ _____    ______ ____
ROOT
ATOM      1  C1  TES A1000      27.405   5.162   4.387  0.00  0.00    +0.000 C 
ATOM      2  C2  TES A1000      26.638   6.467   4.709  0.00  0.00    +0.000 C 
ATOM      3  C3  TES A1000      25.227   6.417   4.196  0.00  0.00    +0.000 C 
ATOM      4  O3  TES A1000      24.601   7.478   3.695  0.00  0.00    +0.000 OA
ATOM      5  C4  TES A1000      24.548   5.130   4.263  0.00  0.00    +0.000 C 
ATOM      6  C5  TES A1000      25.169   3.953   4.597  0.00  0.00    +0.000 C 
ATOM      7  C6  TES A1000      24.359   2.667   4.657  0.00  0.00    +0.000 C 
ATOM      8  C7  TES A1000      25.026   1.505   3.908  0.00  0.00    +0.000 C 
ATOM      9  C8  TES A1000      26.476   1.306   4.437  0.00  0.00    +0.000 C 
ATOM     10  C9  TES A1000      27.324   2.603   4.259  0.00  0.00    +0.000 C 
ATOM     11  C10 TES A1000      26.705   3.871   4.951  0.00  0.00    +0.000 C 
ATOM     12  C11 TES A1000      28.834   2.488   4.707  0.00  0.00    +0.000 C 
ATOM     13  C12 TES A1000      29.494   1.257   4.043  0.00  0.00    +0.000 C 
ATOM     14  C13 TES A1000      28.691  -0.055   4.269  0.00  0.00    +0.000 C 
ATOM     15  C14 TES A1000      27.242   0.166   3.719  0.00  0.00    +0.000 C 
ATOM     16  C15 TES A1000      26.616  -1.254   3.704  0.00  0.00    +0.000 C 
ATOM     17  C16 TES A1000      27.822  -2.183   3.427  0.00  0.00    +0.000 C 
ATOM     18  C17 TES A1000      29.065  -1.255   3.351  0.00  0.00    +0.000 C 
ATOM     19  O17 TES A1000      30.249  -1.933   3.818  0.00  0.00    +0.000 OA
ATOM     20  C18 TES A1000      28.719  -0.459   5.796  0.00  0.00    +0.000 C 
ATOM     21  C19 TES A1000      26.811   3.821   6.502  0.00  0.00    +0.000 C 
ENDROOT
TORSDOF 0
ENDMDL
MODEL 2
REMARK VINA RESULT:      -9.4      1.574      2.968
REMARK  Name = ligand_pdbs\TES_A_1000 .pdb
REMARK  0 active torsions:
REMARK  status: ('A' for Active; 'I' for Inactive)
REMARK                            x       y       z     vdW  Elec       q    Type
REMARK                         _______ _______ _______ _____ _____    ______ ____
ROOT
ATOM      1  C1  TES A1000      24.725   5.262   4.111  0.00  0.00    +0.000 C 
ATOM      2  C2  TES A1000      24.639   6.805   4.034  0.00  0.00    +0.000 C 
ATOM      3  C3  TES A1000      25.396   7.456   5.157  0.00  0.00    +0.000 C 
ATOM      4  O3  TES A1000      24.983   8.567   5.761  0.00  0.00    +0.000 OA
ATOM      5  C4  TES A1000      26.632   6.809   5.579  0.00  0.00    +0.000 C 
ATOM      6  C5  TES A1000      27.038   5.575   5.138  0.00  0.00    +0.000 C 
ATOM      7  C6  TES A1000      28.358   5.001   5.628  0.00  0.00    +0.000 C 
ATOM      8  C7  TES A1000      28.238   3.548   6.108  0.00  0.00    +0.000 C 
ATOM      9  C8  TES A1000      27.605   2.677   4.983  0.00  0.00    +0.000 C 
ATOM     10  C9  TES A1000      26.200   3.217   4.576  0.00  0.00    +0.000 C 
ATOM     11  C10 TES A1000      26.201   4.718   4.111  0.00  0.00    +0.000 C 
ATOM     12  C11 TES A1000      25.440   2.366   3.483  0.00  0.00    +0.000 C 
ATOM     13  C12 TES A1000      25.402   0.878   3.901  0.00  0.00    +0.000 C 
ATOM     14  C13 TES A1000      26.808   0.310   4.246  0.00  0.00    +0.000 C 
ATOM     15  C14 TES A1000      27.417   1.193   5.385  0.00  0.00    +0.000 C 
ATOM     16  C15 TES A1000      28.656   0.393   5.870  0.00  0.00    +0.000 C 
ATOM     17  C16 TES A1000      28.247  -1.083   5.654  0.00  0.00    +0.000 C 
ATOM     18  C17 TES A1000      26.831  -1.043   5.016  0.00  0.00    +0.000 C 
ATOM     19  O17 TES A1000      26.628  -2.162   4.131  0.00  0.00    +0.000 OA
ATOM     20  C18 TES A1000      27.711   0.258   2.951  0.00  0.00    +0.000 C 
ATOM     21  C19 TES A1000      26.859   4.914   2.715  0.00  0.00    +0.000 C 
ENDROOT
TORSDOF 0
ENDMDL
MODEL 3
REMARK VINA RESULT:      -9.1      1.125      6.623
REMARK  Name = ligand_pdbs\TES_A_1000 .pdb
REMARK  0 active torsions:
REMARK  status: ('A' for Active; 'I' for Inactive)
REMARK                            x       y       z     vdW  Elec       q    Type
REMARK                         _______ _______ _______ _____ _____    ______ ____
ROOT
ATOM      1  C1  TES A1000      27.539  -0.224   2.904  0.00  0.00    +0.000 C 
ATOM      2  C2  TES A1000      28.016  -1.685   3.081  0.00  0.00    +0.000 C 
ATOM      3  C3  TES A1000      29.333  -1.752   3.801  0.00  0.00    +0.000 C 
ATOM      4  O3  TES A1000      30.274  -2.645   3.510  0.00  0.00    +0.000 OA
ATOM      5  C4  TES A1000      29.554  -0.773   4.858  0.00  0.00    +0.000 C 
ATOM      6  C5  TES A1000      28.720   0.288   5.105  0.00  0.00    +0.000 C 
ATOM      7  C6  TES A1000      29.035   1.239   6.249  0.00  0.00    +0.000 C 
ATOM      8  C7  TES A1000      28.955   2.716   5.839  0.00  0.00    +0.000 C 
ATOM      9  C8  TES A1000      27.564   3.008   5.204  0.00  0.00    +0.000 C 
ATOM     10  C9  TES A1000      27.311   2.100   3.961  0.00  0.00    +0.000 C 
ATOM     11  C10 TES A1000      27.415   0.561   4.261  0.00  0.00    +0.000 C 
ATOM     12  C11 TES A1000      25.950   2.360   3.202  0.00  0.00    +0.000 C 
ATOM     13  C12 TES A1000      25.804   3.864   2.873  0.00  0.00    +0.000 C 
ATOM     14  C13 TES A1000      25.990   4.776   4.119  0.00  0.00    +0.000 C 
ATOM     15  C14 TES A1000      27.398   4.474   4.731  0.00  0.00    +0.000 C 
ATOM     16  C15 TES A1000      27.623   5.615   5.760  0.00  0.00    +0.000 C 
ATOM     17  C16 TES A1000      26.873   6.818   5.141  0.00  0.00    +0.000 C 
ATOM     18  C17 TES A1000      26.224   6.289   3.833  0.00  0.00    +0.000 C 
ATOM     19  O17 TES A1000      24.987   6.974   3.551  0.00  0.00    +0.000 OA
ATOM     20  C18 TES A1000      24.808   4.554   5.143  0.00  0.00    +0.000 C 
ATOM     21  C19 TES A1000      26.215   0.029   5.096  0.00  0.00    +0.000 C 
ENDROOT
TORSDOF 0
ENDMDL
MODEL 4
REMARK VINA RESULT:      -8.4      1.482      6.318
REMARK  Name = ligand_pdbs\TES_A_1000 .pdb
REMARK  0 active torsions:
REMARK  status: ('A' for Active; 'I' for Inactive)
REMARK                            x       y       z     vdW  Elec       q    Type
REMARK                         _______ _______ _______ _____ _____    ______ ____
ROOT
ATOM      1  C1  TES A1000      28.134   0.322   5.303  0.00  0.00    +0.000 C 
ATOM      2  C2  TES A1000      28.407  -1.161   4.956  0.00  0.00    +0.000 C 
ATOM      3  C3  TES A1000      27.129  -1.920   4.735  0.00  0.00    +0.000 C 
ATOM      4  O3  TES A1000      26.965  -3.185   5.108  0.00  0.00    +0.000 OA
ATOM      5  C4  TES A1000      26.041  -1.201   4.085  0.00  0.00    +0.000 C 
ATOM      6  C5  TES A1000      26.060   0.147   3.829  0.00  0.00    +0.000 C 
ATOM      7  C6  TES A1000      24.877   0.793   3.124  0.00  0.00    +0.000 C 
ATOM      8  C7  TES A1000      24.389   2.069   3.823  0.00  0.00    +0.000 C 
ATOM      9  C8  TES A1000      25.577   3.059   3.994  0.00  0.00    +0.000 C 
ATOM     10  C9  TES A1000      26.733   2.414   4.819  0.00  0.00    +0.000 C 
ATOM     11  C10 TES A1000      27.279   1.071   4.215  0.00  0.00    +0.000 C 
ATOM     12  C11 TES A1000      27.966   3.360   5.106  0.00  0.00    +0.000 C 
ATOM     13  C12 TES A1000      27.482   4.696   5.715  0.00  0.00    +0.000 C 
ATOM     14  C13 TES A1000      26.374   5.381   4.865  0.00  0.00    +0.000 C 
ATOM     15  C14 TES A1000      25.186   4.372   4.718  0.00  0.00    +0.000 C 
ATOM     16  C15 TES A1000      24.028   5.225   4.133  0.00  0.00    +0.000 C 
ATOM     17  C16 TES A1000      24.274   6.633   4.726  0.00  0.00    +0.000 C 
ATOM     18  C17 TES A1000      25.576   6.519   5.566  0.00  0.00    +0.000 C 
ATOM     19  O17 TES A1000      26.307   7.761   5.563  0.00  0.00    +0.000 OA
ATOM     20  C18 TES A1000      26.962   5.853   3.476  0.00  0.00    +0.000 C 
ATOM     21  C19 TES A1000      28.111   1.290   2.918  0.00  0.00    +0.000 C 
ENDROOT
TORSDOF 0
ENDMDL
