MODEL 1
REMARK VINA RESULT:     -10.1      0.000      0.000
REMARK  Name = ligand_pdbs\TES_A_1000 .pdb
REMARK  0 active torsions:
REMARK  status: ('A' for Active; 'I' for Inactive)
REMARK                            x       y       z     vdW  Elec       q    Type
REMARK                         _______ _______ _______ _____ _____    ______ ____
ROOT
ATOM      1  C1  TES A1000      27.402   5.162   4.400  0.00  0.00    +0.000 C 
ATOM      2  C2  TES A1000      26.633   6.465   4.721  0.00  0.00    +0.000 C 
ATOM      3  C3  TES A1000      25.225   6.418   4.197  0.00  0.00    +0.000 C 
ATOM      4  O3  TES A1000      24.603   7.480   3.695  0.00  0.00    +0.000 OA
ATOM      5  C4  TES A1000      24.546   5.130   4.255  0.00  0.00    +0.000 C 
ATOM      6  C5  TES A1000      25.165   3.952   4.589  0.00  0.00    +0.000 C 
ATOM      7  C6  TES A1000      24.355   2.666   4.638  0.00  0.00    +0.000 C 
ATOM      8  C7  TES A1000      25.027   1.507   3.891  0.00  0.00    +0.000 C 
ATOM      9  C8  TES A1000      26.474   1.305   4.429  0.00  0.00    +0.000 C 
ATOM     10  C9  TES A1000      27.322   2.603   4.263  0.00  0.00    +0.000 C 
ATOM     11  C10 TES A1000      26.698   3.869   4.954  0.00  0.00    +0.000 C 
ATOM     12  C11 TES A1000      28.829   2.488   4.722  0.00  0.00    +0.000 C 
ATOM     13  C12 TES A1000      29.494   1.259   4.058  0.00  0.00    +0.000 C 
ATOM     14  C13 TES A1000      28.689  -0.054   4.273  0.00  0.00    +0.000 C 
ATOM     15  C14 TES A1000      27.245   0.169   3.713  0.00  0.00    +0.000 C 
ATOM     16  C15 TES A1000      26.620  -1.252   3.689  0.00  0.00    +0.000 C 
ATOM     17  C16 TES A1000      27.827  -2.180   3.417  0.00  0.00    +0.000 C 
ATOM     18  C17 TES A1000      29.071  -1.251   3.354  0.00  0.00    +0.000 C 
ATOM     19  O17 TES A1000      30.251  -1.930   3.828  0.00  0.00    +0.000 OA
ATOM     20  C18 TES A1000      28.706  -0.463   5.799  0.00  0.00    +0.000 C 
ATOM     21  C19 TES A1000      26.792   3.814   6.506  0.00  0.00    +0.000 C 
ENDROOT
TORSDOF 0
ENDMDL
MODEL 2
REMARK VINA RESULT:      -9.4      1.573      2.971
REMARK  Name = ligand_pdbs\TES_A_1000 .pdb
REMARK  0 active torsions:
REMARK  status: ('A' for Active; 'I' for Inactive)
REMARK                            x       y       z     vdW  Elec       q    Type
REMARK                         _______ _______ _______ _____ _____    ______ ____
ROOT
ATOM      1  C1  TES A1000      24.725   5.262   4.112  0.00  0.00    +0.000 C 
ATOM      2  C2  TES A1000      24.639   6.805   4.035  0.00  0.00    +0.000 C 
ATOM      3  C3  TES A1000      25.396   7.456   5.157  0.00  0.00    +0.000 C 
ATOM      4  O3  TES A1000      24.984   8.567   5.761  0.00  0.00    +0.000 OA
ATOM      5  C4  TES A1000      26.632   6.809   5.579  0.00  0.00    +0.000 C 
ATOM      6  C5  TES A1000      27.038   5.575   5.138  0.00  0.00    +0.000 C 
ATOM      7  C6  TES A1000      28.358   5.001   5.628  0.00  0.00    +0.000 C 
ATOM      8  C7  TES A1000      28.238   3.548   6.108  0.00  0.00    +0.000 C 
ATOM      9  C8  TES A1000      27.605   2.677   4.983  0.00  0.00    +0.000 C 
ATOM     10  C9  TES A1000      26.200   3.217   4.576  0.00  0.00    +0.000 C 
ATOM     11  C10 TES A1000      26.201   4.718   4.111  0.00  0.00    +0.000 C 
ATOM     12  C11 TES A1000      25.440   2.366   3.483  0.00  0.00    +0.000 C 
ATOM     13  C12 TES A1000      25.402   0.878   3.901  0.00  0.00    +0.000 C 
ATOM     14  C13 TES A1000      26.808   0.310   4.246  0.00  0.00    +0.000 C 
ATOM     15  C14 TES A1000      27.417   1.193   5.385  0.00  0.00    +0.000 C 
ATOM     16  C15 TES A1000      28.656   0.393   5.870  0.00  0.00    +0.000 C 
ATOM     17  C16 TES A1000      28.247  -1.083   5.654  0.00  0.00    +0.000 C 
ATOM     18  C17 TES A1000      26.831  -1.043   5.016  0.00  0.00    +0.000 C 
ATOM     19  O17 TES A1000      26.628  -2.162   4.131  0.00  0.00    +0.000 OA
ATOM     20  C18 TES A1000      27.711   0.258   2.951  0.00  0.00    +0.000 C 
ATOM     21  C19 TES A1000      26.858   4.914   2.715  0.00  0.00    +0.000 C 
ENDROOT
TORSDOF 0
ENDMDL
MODEL 3
REMARK VINA RESULT:      -9.1      1.125      6.623
REMARK  Name = ligand_pdbs\TES_A_1000 .pdb
REMARK  0 active torsions:
REMARK  status: ('A' for Active; 'I' for Inactive)
REMARK                            x       y       z     vdW  Elec       q    Type
REMARK                         _______ _______ _______ _____ _____    ______ ____
ROOT
ATOM      1  C1  TES A1000      27.539  -0.225   2.904  0.00  0.00    +0.000 C 
ATOM      2  C2  TES A1000      28.016  -1.685   3.081  0.00  0.00    +0.000 C 
ATOM      3  C3  TES A1000      29.333  -1.752   3.802  0.00  0.00    +0.000 C 
ATOM      4  O3  TES A1000      30.274  -2.645   3.510  0.00  0.00    +0.000 OA
ATOM      5  C4  TES A1000      29.554  -0.773   4.858  0.00  0.00    +0.000 C 
ATOM      6  C5  TES A1000      28.720   0.288   5.105  0.00  0.00    +0.000 C 
ATOM      7  C6  TES A1000      29.035   1.239   6.249  0.00  0.00    +0.000 C 
ATOM      8  C7  TES A1000      28.955   2.716   5.839  0.00  0.00    +0.000 C 
ATOM      9  C8  TES A1000      27.564   3.008   5.204  0.00  0.00    +0.000 C 
ATOM     10  C9  TES A1000      27.311   2.100   3.961  0.00  0.00    +0.000 C 
ATOM     11  C10 TES A1000      27.415   0.561   4.261  0.00  0.00    +0.000 C 
ATOM     12  C11 TES A1000      25.950   2.360   3.202  0.00  0.00    +0.000 C 
ATOM     13  C12 TES A1000      25.803   3.864   2.873  0.00  0.00    +0.000 C 
ATOM     14  C13 TES A1000      25.990   4.776   4.119  0.00  0.00    +0.000 C 
ATOM     15  C14 TES A1000      27.398   4.474   4.731  0.00  0.00    +0.000 C 
ATOM     16  C15 TES A1000      27.623   5.615   5.759  0.00  0.00    +0.000 C 
ATOM     17  C16 TES A1000      26.873   6.818   5.141  0.00  0.00    +0.000 C 
ATOM     18  C17 TES A1000      26.224   6.288   3.833  0.00  0.00    +0.000 C 
ATOM     19  O17 TES A1000      24.987   6.974   3.551  0.00  0.00    +0.000 OA
ATOM     20  C18 TES A1000      24.808   4.554   5.143  0.00  0.00    +0.000 C 
ATOM     21  C19 TES A1000      26.215   0.029   5.096  0.00  0.00    +0.000 C 
ENDROOT
TORSDOF 0
ENDMDL
MODEL 4
REMARK VINA RESULT:      -8.4      1.480      6.315
REMARK  Name = ligand_pdbs\TES_A_1000 .pdb
REMARK  0 active torsions:
REMARK  status: ('A' for Active; 'I' for Inactive)
REMARK                            x       y       z     vdW  Elec       q    Type
REMARK                         _______ _______ _______ _____ _____    ______ ____
ROOT
ATOM      1  C1  TES A1000      28.142   0.305   5.310  0.00  0.00    +0.000 C 
ATOM      2  C2  TES A1000      28.415  -1.177   4.959  0.00  0.00    +0.000 C 
ATOM      3  C3  TES A1000      27.137  -1.933   4.731  0.00  0.00    +0.000 C 
ATOM      4  O3  TES A1000      26.969  -3.200   5.099  0.00  0.00    +0.000 OA
ATOM      5  C4  TES A1000      26.053  -1.210   4.078  0.00  0.00    +0.000 C 
ATOM      6  C5  TES A1000      26.074   0.138   3.827  0.00  0.00    +0.000 C 
ATOM      7  C6  TES A1000      24.895   0.789   3.120  0.00  0.00    +0.000 C 
ATOM      8  C7  TES A1000      24.406   2.063   3.821  0.00  0.00    +0.000 C 
ATOM      9  C8  TES A1000      25.596   3.051   4.000  0.00  0.00    +0.000 C 
ATOM     10  C9  TES A1000      26.747   2.401   4.828  0.00  0.00    +0.000 C 
ATOM     11  C10 TES A1000      27.293   1.059   4.221  0.00  0.00    +0.000 C 
ATOM     12  C11 TES A1000      27.981   3.343   5.122  0.00  0.00    +0.000 C 
ATOM     13  C12 TES A1000      27.496   4.679   5.734  0.00  0.00    +0.000 C 
ATOM     14  C13 TES A1000      26.393   5.369   4.881  0.00  0.00    +0.000 C 
ATOM     15  C14 TES A1000      25.204   4.362   4.726  0.00  0.00    +0.000 C 
ATOM     16  C15 TES A1000      24.050   5.219   4.140  0.00  0.00    +0.000 C 
ATOM     17  C16 TES A1000      24.296   6.624   4.738  0.00  0.00    +0.000 C 
ATOM     18  C17 TES A1000      25.594   6.505   5.584  0.00  0.00    +0.000 C 
ATOM     19  O17 TES A1000      26.326   7.746   5.588  0.00  0.00    +0.000 OA
ATOM     20  C18 TES A1000      26.987   5.844   3.497  0.00  0.00    +0.000 C 
ATOM     21  C19 TES A1000      28.131   1.281   2.928  0.00  0.00    +0.000 C 
ENDROOT
TORSDOF 0
ENDMDL
