MODEL 1
REMARK VINA RESULT:      -6.3      0.000      0.000
REMARK  Name = ligand_pdbs\UNL.pdb
REMARK  3 active torsions:
REMARK  status: ('A' for Active; 'I' for Inactive)
REMARK    1  A    between atoms: C4_10  and  C5_12
REMARK    2  A    between atoms: C5_12  and  N3_13
REMARK    3  A    between atoms: C6_14  and  C7_16
REMARK                            x       y       z     vdW  Elec       q    Type
REMARK                         _______ _______ _______ _____ _____    ______ ____
ROOT
ATOM      1 BR1  UNL A 703      25.225   2.071   3.946  0.00  0.00    +0.000 Br
ATOM      2  C13 UNL A 703      25.656   3.811   4.516  0.00  0.00    +0.000 C 
ATOM      3  C1  UNL A 703      26.993   4.142   4.848  0.00  0.00    +0.000 C 
ATOM      4  N1  UNL A 703      27.933   3.179   4.753  0.00  0.00    +0.000 NA
ATOM      5  C12 UNL A 703      24.659   4.746   4.599  0.00  0.00    +0.000 C 
ATOM      6  C11 UNL A 703      25.028   6.018   5.007  0.00  0.00    +0.000 C 
ATOM      7  C2  UNL A 703      26.358   6.305   5.322  0.00  0.00    +0.000 C 
ATOM      8  N2  UNL A 703      27.338   5.366   5.252  0.00  0.00    +0.000 NA
ATOM      9  N6  UNL A 703      24.304   7.167   5.177  0.00  0.00    +0.000 NA
ATOM     10  C4  UNL A 703      25.147   8.159   5.609  0.00  0.00    +0.000 C 
ATOM     11  C3  UNL A 703      26.409   7.644   5.690  0.00  0.00    +0.000 C 
ENDROOT
BRANCH  10  12
ATOM     12  C5  UNL A 703      24.610   9.530   5.860  0.00  0.00    +0.000 C 
BRANCH  12  13
ATOM     13  N3  UNL A 703      24.418   9.803   7.275  0.00  0.00    +0.000 NA
ATOM     14  C6  UNL A 703      24.038  11.005   7.706  0.00  0.00    +0.000 C 
ATOM     15  O1  UNL A 703      23.858  11.951   6.940  0.00  0.00    +0.000 OA
BRANCH  14  16
ATOM     16  C7  UNL A 703      23.858  11.147   9.198  0.00  0.00    +0.000 A 
ATOM     17  N5  UNL A 703      23.783  10.035   9.939  0.00  0.00    +0.000 NA
ATOM     18  C10 UNL A 703      23.643  10.200  11.253  0.00  0.00    +0.000 A 
ATOM     19  N4  UNL A 703      23.567  11.349  11.913  0.00  0.00    +0.000 NA
ATOM     20  C9  UNL A 703      23.654  12.444  11.161  0.00  0.00    +0.000 A 
ATOM     21  C8  UNL A 703      23.787  12.398   9.784  0.00  0.00    +0.000 A 
ENDBRANCH  14  16
ENDBRANCH  12  13
ENDBRANCH  10  12
TORSDOF 3
ENDMDL
MODEL 2
REMARK VINA RESULT:      -6.2      4.689      7.078
REMARK  Name = ligand_pdbs\UNL.pdb
REMARK  3 active torsions:
REMARK  status: ('A' for Active; 'I' for Inactive)
REMARK    1  A    between atoms: C4_10  and  C5_12
REMARK    2  A    between atoms: C5_12  and  N3_13
REMARK    3  A    between atoms: C6_14  and  C7_16
REMARK                            x       y       z     vdW  Elec       q    Type
REMARK                         _______ _______ _______ _____ _____    ______ ____
ROOT
ATOM      1 BR1  UNL A 703      26.485  -3.194   4.217  0.00  0.00    +0.000 Br
ATOM      2  C13 UNL A 703      27.615  -1.735   4.576  0.00  0.00    +0.000 C 
ATOM      3  C1  UNL A 703      28.951  -1.735   4.104  0.00  0.00    +0.000 C 
ATOM      4  N1  UNL A 703      29.383  -2.806   3.407  0.00  0.00    +0.000 NA
ATOM      5  C12 UNL A 703      27.123  -0.678   5.294  0.00  0.00    +0.000 C 
ATOM      6  C11 UNL A 703      27.989   0.381   5.519  0.00  0.00    +0.000 C 
ATOM      7  C2  UNL A 703      29.297   0.345   5.033  0.00  0.00    +0.000 C 
ATOM      8  N2  UNL A 703      29.781  -0.717   4.335  0.00  0.00    +0.000 NA
ATOM      9  N6  UNL A 703      27.820   1.575   6.168  0.00  0.00    +0.000 NA
ATOM     10  C4  UNL A 703      28.999   2.275   6.116  0.00  0.00    +0.000 C 
ATOM     11  C3  UNL A 703      29.906   1.535   5.413  0.00  0.00    +0.000 C 
ENDROOT
BRANCH  10  12
ATOM     12  C5  UNL A 703      29.084   3.628   6.742  0.00  0.00    +0.000 C 
BRANCH  12  13
ATOM     13  N3  UNL A 703      27.942   4.466   6.418  0.00  0.00    +0.000 NA
ATOM     14  C6  UNL A 703      27.719   4.887   5.174  0.00  0.00    +0.000 C 
ATOM     15  O1  UNL A 703      28.478   4.617   4.243  0.00  0.00    +0.000 OA
BRANCH  14  16
ATOM     16  C7  UNL A 703      26.487   5.735   4.973  0.00  0.00    +0.000 A 
ATOM     17  N5  UNL A 703      25.343   5.126   4.640  0.00  0.00    +0.000 NA
ATOM     18  C10 UNL A 703      24.272   5.905   4.489  0.00  0.00    +0.000 A 
ATOM     19  N4  UNL A 703      24.215   7.223   4.630  0.00  0.00    +0.000 NA
ATOM     20  C9  UNL A 703      25.360   7.811   4.971  0.00  0.00    +0.000 A 
ATOM     21  C8  UNL A 703      26.539   7.107   5.143  0.00  0.00    +0.000 A 
ENDBRANCH  14  16
ENDBRANCH  12  13
ENDBRANCH  10  12
TORSDOF 3
ENDMDL
MODEL 3
REMARK VINA RESULT:      -5.7      5.297     10.020
REMARK  Name = ligand_pdbs\UNL.pdb
REMARK  3 active torsions:
REMARK  status: ('A' for Active; 'I' for Inactive)
REMARK    1  A    between atoms: C4_10  and  C5_12
REMARK    2  A    between atoms: C5_12  and  N3_13
REMARK    3  A    between atoms: C6_14  and  C7_16
REMARK                            x       y       z     vdW  Elec       q    Type
REMARK                         _______ _______ _______ _____ _____    ______ ____
ROOT
ATOM      1 BR1  UNL A 703      24.809   8.706   5.852  0.00  0.00    +0.000 Br
ATOM      2  C13 UNL A 703      25.379   7.047   5.175  0.00  0.00    +0.000 C 
ATOM      3  C1  UNL A 703      26.752   6.815   4.918  0.00  0.00    +0.000 C 
ATOM      4  N1  UNL A 703      27.626   7.814   5.161  0.00  0.00    +0.000 NA
ATOM      5  C12 UNL A 703      24.445   6.072   4.941  0.00  0.00    +0.000 C 
ATOM      6  C11 UNL A 703      24.915   4.861   4.459  0.00  0.00    +0.000 C 
ATOM      7  C2  UNL A 703      26.278   4.671   4.222  0.00  0.00    +0.000 C 
ATOM      8  N2  UNL A 703      27.195   5.650   4.442  0.00  0.00    +0.000 NA
ATOM      9  N6  UNL A 703      24.272   3.694   4.143  0.00  0.00    +0.000 NA
ATOM     10  C4  UNL A 703      25.199   2.788   3.694  0.00  0.00    +0.000 C 
ATOM     11  C3  UNL A 703      26.431   3.372   3.750  0.00  0.00    +0.000 C 
ENDROOT
BRANCH  10  12
ATOM     12  C5  UNL A 703      24.761   1.418   3.292  0.00  0.00    +0.000 C 
BRANCH  12  13
ATOM     13  N3  UNL A 703      25.871   0.486   3.186  0.00  0.00    +0.000 NA
ATOM     14  C6  UNL A 703      26.448  -0.035   4.266  0.00  0.00    +0.000 C 
ATOM     15  O1  UNL A 703      26.096   0.263   5.407  0.00  0.00    +0.000 OA
BRANCH  14  16
ATOM     16  C7  UNL A 703      27.578  -1.003   4.013  0.00  0.00    +0.000 A 
ATOM     17  N5  UNL A 703      28.791  -0.508   3.739  0.00  0.00    +0.000 NA
ATOM     18  C10 UNL A 703      29.767  -1.392   3.539  0.00  0.00    +0.000 A 
ATOM     19  N4  UNL A 703      29.670  -2.715   3.579  0.00  0.00    +0.000 NA
ATOM     20  C9  UNL A 703      28.459  -3.190   3.863  0.00  0.00    +0.000 A 
ATOM     21  C8  UNL A 703      27.365  -2.369   4.077  0.00  0.00    +0.000 A 
ENDBRANCH  14  16
ENDBRANCH  12  13
ENDBRANCH  10  12
TORSDOF 3
ENDMDL
MODEL 4
REMARK VINA RESULT:      -5.5      4.601      7.117
REMARK  Name = ligand_pdbs\UNL.pdb
REMARK  3 active torsions:
REMARK  status: ('A' for Active; 'I' for Inactive)
REMARK    1  A    between atoms: C4_10  and  C5_12
REMARK    2  A    between atoms: C5_12  and  N3_13
REMARK    3  A    between atoms: C6_14  and  C7_16
REMARK                            x       y       z     vdW  Elec       q    Type
REMARK                         _______ _______ _______ _____ _____    ______ ____
ROOT
ATOM      1 BR1  UNL A 703      29.603  -3.324   3.229  0.00  0.00    +0.000 Br
ATOM      2  C13 UNL A 703      28.899  -1.820   4.111  0.00  0.00    +0.000 C 
ATOM      3  C1  UNL A 703      27.565  -1.831   4.586  0.00  0.00    +0.000 C 
ATOM      4  N1  UNL A 703      26.822  -2.938   4.379  0.00  0.00    +0.000 NA
ATOM      5  C12 UNL A 703      29.699  -0.722   4.286  0.00  0.00    +0.000 C 
ATOM      6  C11 UNL A 703      29.141   0.356   4.957  0.00  0.00    +0.000 C 
ATOM      7  C2  UNL A 703      27.823   0.303   5.413  0.00  0.00    +0.000 C 
ATOM      8  N2  UNL A 703      27.032  -0.785   5.219  0.00  0.00    +0.000 NA
ATOM      9  N6  UNL A 703      29.655   1.574   5.311  0.00  0.00    +0.000 NA
ATOM     10  C4  UNL A 703      28.682   2.291   5.959  0.00  0.00    +0.000 C 
ATOM     11  C3  UNL A 703      27.560   1.517   6.037  0.00  0.00    +0.000 C 
ENDROOT
BRANCH  10  12
ATOM     12  C5  UNL A 703      28.987   3.662   6.467  0.00  0.00    +0.000 C 
BRANCH  12  13
ATOM     13  N3  UNL A 703      27.900   4.598   6.234  0.00  0.00    +0.000 NA
ATOM     14  C6  UNL A 703      27.652   5.088   5.020  0.00  0.00    +0.000 C 
ATOM     15  O1  UNL A 703      28.343   4.801   4.043  0.00  0.00    +0.000 OA
BRANCH  14  16
ATOM     16  C7  UNL A 703      26.482   6.035   4.914  0.00  0.00    +0.000 A 
ATOM     17  N5  UNL A 703      25.334   5.575   4.405  0.00  0.00    +0.000 NA
ATOM     18  C10 UNL A 703      24.318   6.435   4.344  0.00  0.00    +0.000 A 
ATOM     19  N4  UNL A 703      24.318   7.704   4.733  0.00  0.00    +0.000 NA
ATOM     20  C9  UNL A 703      25.466   8.142   5.247  0.00  0.00    +0.000 A 
ATOM     21  C8  UNL A 703      26.593   7.345   5.349  0.00  0.00    +0.000 A 
ENDBRANCH  14  16
ENDBRANCH  12  13
ENDBRANCH  10  12
TORSDOF 3
ENDMDL
MODEL 5
REMARK VINA RESULT:      -5.3      5.312     10.297
REMARK  Name = ligand_pdbs\UNL.pdb
REMARK  3 active torsions:
REMARK  status: ('A' for Active; 'I' for Inactive)
REMARK    1  A    between atoms: C4_10  and  C5_12
REMARK    2  A    between atoms: C5_12  and  N3_13
REMARK    3  A    between atoms: C6_14  and  C7_16
REMARK                            x       y       z     vdW  Elec       q    Type
REMARK                         _______ _______ _______ _____ _____    ______ ____
ROOT
ATOM      1 BR1  UNL A 703      27.466   7.624   5.271  0.00  0.00    +0.000 Br
ATOM      2  C13 UNL A 703      26.280   6.212   4.899  0.00  0.00    +0.000 C 
ATOM      3  C1  UNL A 703      24.881   6.429   4.933  0.00  0.00    +0.000 C 
ATOM      4  N1  UNL A 703      24.432   7.662   5.247  0.00  0.00    +0.000 NA
ATOM      5  C12 UNL A 703      26.794   4.980   4.593  0.00  0.00    +0.000 C 
ATOM      6  C11 UNL A 703      25.881   3.976   4.310  0.00  0.00    +0.000 C 
ATOM      7  C2  UNL A 703      24.509   4.232   4.350  0.00  0.00    +0.000 C 
ATOM      8  N2  UNL A 703      24.009   5.454   4.671  0.00  0.00    +0.000 NA
ATOM      9  N6  UNL A 703      26.049   2.665   3.956  0.00  0.00    +0.000 NA
ATOM     10  C4  UNL A 703      24.814   2.090   3.795  0.00  0.00    +0.000 C 
ATOM     11  C3  UNL A 703      23.865   3.044   4.022  0.00  0.00    +0.000 C 
ENDROOT
BRANCH  10  12
ATOM     12  C5  UNL A 703      24.712   0.655   3.392  0.00  0.00    +0.000 C 
BRANCH  12  13
ATOM     13  N3  UNL A 703      26.012   0.021   3.252  0.00  0.00    +0.000 NA
ATOM     14  C6  UNL A 703      26.638  -0.518   4.296  0.00  0.00    +0.000 C 
ATOM     15  O1  UNL A 703      26.170  -0.484   5.433  0.00  0.00    +0.000 OA
BRANCH  14  16
ATOM     16  C7  UNL A 703      27.973  -1.161   4.007  0.00  0.00    +0.000 A 
ATOM     17  N5  UNL A 703      29.057  -0.377   3.946  0.00  0.00    +0.000 NA
ATOM     18  C10 UNL A 703      30.220  -0.982   3.708  0.00  0.00    +0.000 A 
ATOM     19  N4  UNL A 703      30.425  -2.280   3.522  0.00  0.00    +0.000 NA
ATOM     20  C9  UNL A 703      29.338  -3.045   3.597  0.00  0.00    +0.000 A 
ATOM     21  C8  UNL A 703      28.074  -2.529   3.826  0.00  0.00    +0.000 A 
ENDBRANCH  14  16
ENDBRANCH  12  13
ENDBRANCH  10  12
TORSDOF 3
ENDMDL
MODEL 6
REMARK VINA RESULT:      -5.2      5.399     10.018
REMARK  Name = ligand_pdbs\UNL.pdb
REMARK  3 active torsions:
REMARK  status: ('A' for Active; 'I' for Inactive)
REMARK    1  A    between atoms: C4_10  and  C5_12
REMARK    2  A    between atoms: C5_12  and  N3_13
REMARK    3  A    between atoms: C6_14  and  C7_16
REMARK                            x       y       z     vdW  Elec       q    Type
REMARK                         _______ _______ _______ _____ _____    ______ ____
ROOT
ATOM      1 BR1  UNL A 703      25.809   8.955   4.243  0.00  0.00    +0.000 Br
ATOM      2  C13 UNL A 703      26.060   7.178   4.805  0.00  0.00    +0.000 C 
ATOM      3  C1  UNL A 703      24.960   6.287   4.866  0.00  0.00    +0.000 C 
ATOM      4  N1  UNL A 703      23.741   6.752   4.522  0.00  0.00    +0.000 NA
ATOM      5  C12 UNL A 703      27.319   6.765   5.149  0.00  0.00    +0.000 C 
ATOM      6  C11 UNL A 703      27.458   5.442   5.540  0.00  0.00    +0.000 C 
ATOM      7  C2  UNL A 703      26.349   4.595   5.583  0.00  0.00    +0.000 C 
ATOM      8  N2  UNL A 703      25.099   5.019   5.256  0.00  0.00    +0.000 NA
ATOM      9  N6  UNL A 703      28.552   4.714   5.922  0.00  0.00    +0.000 NA
ATOM     10  C4  UNL A 703      28.149   3.438   6.222  0.00  0.00    +0.000 C 
ATOM     11  C3  UNL A 703      26.804   3.351   6.006  0.00  0.00    +0.000 C 
ENDROOT
BRANCH  10  12
ATOM     12  C5  UNL A 703      29.157   2.425   6.656  0.00  0.00    +0.000 C 
BRANCH  12  13
ATOM     13  N3  UNL A 703      28.856   1.091   6.165  0.00  0.00    +0.000 NA
ATOM     14  C6  UNL A 703      29.108   0.740   4.906  0.00  0.00    +0.000 C 
ATOM     15  O1  UNL A 703      29.579   1.528   4.086  0.00  0.00    +0.000 OA
BRANCH  14  16
ATOM     16  C7  UNL A 703      28.763  -0.681   4.532  0.00  0.00    +0.000 A 
ATOM     17  N5  UNL A 703      29.673  -1.403   3.867  0.00  0.00    +0.000 NA
ATOM     18  C10 UNL A 703      29.341  -2.659   3.570  0.00  0.00    +0.000 A 
ATOM     19  N4  UNL A 703      28.203  -3.276   3.862  0.00  0.00    +0.000 NA
ATOM     20  C9  UNL A 703      27.314  -2.546   4.533  0.00  0.00    +0.000 A 
ATOM     21  C8  UNL A 703      27.542  -1.227   4.884  0.00  0.00    +0.000 A 
ENDBRANCH  14  16
ENDBRANCH  12  13
ENDBRANCH  10  12
TORSDOF 3
ENDMDL
MODEL 7
REMARK VINA RESULT:      -4.5      4.725      7.111
REMARK  Name = ligand_pdbs\UNL.pdb
REMARK  3 active torsions:
REMARK  status: ('A' for Active; 'I' for Inactive)
REMARK    1  A    between atoms: C4_10  and  C5_12
REMARK    2  A    between atoms: C5_12  and  N3_13
REMARK    3  A    between atoms: C6_14  and  C7_16
REMARK                            x       y       z     vdW  Elec       q    Type
REMARK                         _______ _______ _______ _____ _____    ______ ____
ROOT
ATOM      1 BR1  UNL A 703      30.922  -1.070   2.418  0.00  0.00    +0.000 Br
ATOM      2  C13 UNL A 703      29.166  -0.811   3.041  0.00  0.00    +0.000 C 
ATOM      3  C1  UNL A 703      28.470  -1.871   3.673  0.00  0.00    +0.000 C 
ATOM      4  N1  UNL A 703      29.095  -3.060   3.802  0.00  0.00    +0.000 NA
ATOM      5  C12 UNL A 703      28.580   0.416   2.877  0.00  0.00    +0.000 C 
ATOM      6  C11 UNL A 703      27.293   0.563   3.368  0.00  0.00    +0.000 C 
ATOM      7  C2  UNL A 703      26.642  -0.505   3.989  0.00  0.00    +0.000 C 
ATOM      8  N2  UNL A 703      27.226  -1.724   4.132  0.00  0.00    +0.000 NA
ATOM      9  N6  UNL A 703      26.441   1.635   3.387  0.00  0.00    +0.000 NA
ATOM     10  C4  UNL A 703      25.267   1.255   3.986  0.00  0.00    +0.000 C 
ATOM     11  C3  UNL A 703      25.385  -0.050   4.368  0.00  0.00    +0.000 C 
ENDROOT
BRANCH  10  12
ATOM     12  C5  UNL A 703      24.163   2.248   4.149  0.00  0.00    +0.000 C 
BRANCH  12  13
ATOM     13  N3  UNL A 703      24.645   3.619   4.173  0.00  0.00    +0.000 NA
ATOM     14  C6  UNL A 703      25.072   4.186   5.299  0.00  0.00    +0.000 C 
ATOM     15  O1  UNL A 703      25.055   3.597   6.379  0.00  0.00    +0.000 OA
BRANCH  14  16
ATOM     16  C7  UNL A 703      25.563   5.608   5.180  0.00  0.00    +0.000 A 
ATOM     17  N5  UNL A 703      26.876   5.841   5.297  0.00  0.00    +0.000 NA
ATOM     18  C10 UNL A 703      27.274   7.105   5.167  0.00  0.00    +0.000 A 
ATOM     19  N4  UNL A 703      26.511   8.166   4.936  0.00  0.00    +0.000 NA
ATOM     20  C9  UNL A 703      25.209   7.914   4.811  0.00  0.00    +0.000 A 
ATOM     21  C8  UNL A 703      24.677   6.643   4.939  0.00  0.00    +0.000 A 
ENDBRANCH  14  16
ENDBRANCH  12  13
ENDBRANCH  10  12
TORSDOF 3
ENDMDL
MODEL 8
REMARK VINA RESULT:      -4.5      5.448     10.154
REMARK  Name = ligand_pdbs\UNL.pdb
REMARK  3 active torsions:
REMARK  status: ('A' for Active; 'I' for Inactive)
REMARK    1  A    between atoms: C4_10  and  C5_12
REMARK    2  A    between atoms: C5_12  and  N3_13
REMARK    3  A    between atoms: C6_14  and  C7_16
REMARK                            x       y       z     vdW  Elec       q    Type
REMARK                         _______ _______ _______ _____ _____    ______ ____
ROOT
ATOM      1 BR1  UNL A 703      22.432   4.554   4.411  0.00  0.00    +0.000 Br
ATOM      2  C13 UNL A 703      24.259   4.593   4.856  0.00  0.00    +0.000 C 
ATOM      3  C1  UNL A 703      24.958   5.825   4.891  0.00  0.00    +0.000 C 
ATOM      4  N1  UNL A 703      24.283   6.953   4.587  0.00  0.00    +0.000 NA
ATOM      5  C12 UNL A 703      24.893   3.416   5.149  0.00  0.00    +0.000 C 
ATOM      6  C11 UNL A 703      26.235   3.497   5.488  0.00  0.00    +0.000 C 
ATOM      7  C2  UNL A 703      26.887   4.732   5.514  0.00  0.00    +0.000 C 
ATOM      8  N2  UNL A 703      26.252   5.893   5.206  0.00  0.00    +0.000 NA
ATOM      9  N6  UNL A 703      27.145   2.539   5.846  0.00  0.00    +0.000 NA
ATOM     10  C4  UNL A 703      28.354   3.144   6.075  0.00  0.00    +0.000 C 
ATOM     11  C3  UNL A 703      28.204   4.488   5.886  0.00  0.00    +0.000 C 
ENDROOT
BRANCH  10  12
ATOM     12  C5  UNL A 703      29.526   2.320   6.497  0.00  0.00    +0.000 C 
BRANCH  12  13
ATOM     13  N3  UNL A 703      29.469   0.963   5.979  0.00  0.00    +0.000 NA
ATOM     14  C6  UNL A 703      29.464   0.717   4.671  0.00  0.00    +0.000 C 
ATOM     15  O1  UNL A 703      29.476   1.619   3.833  0.00  0.00    +0.000 OA
BRANCH  14  16
ATOM     16  C7  UNL A 703      29.421  -0.737   4.270  0.00  0.00    +0.000 A 
ATOM     17  N5  UNL A 703      30.547  -1.308   3.825  0.00  0.00    +0.000 NA
ATOM     18  C10 UNL A 703      30.475  -2.598   3.498  0.00  0.00    +0.000 A 
ATOM     19  N4  UNL A 703      29.407  -3.382   3.562  0.00  0.00    +0.000 NA
ATOM     20  C9  UNL A 703      28.299  -2.800   4.016  0.00  0.00    +0.000 A 
ATOM     21  C8  UNL A 703      28.248  -1.464   4.374  0.00  0.00    +0.000 A 
ENDBRANCH  14  16
ENDBRANCH  12  13
ENDBRANCH  10  12
TORSDOF 3
ENDMDL
MODEL 9
REMARK VINA RESULT:      -4.2      4.397      6.574
REMARK  Name = ligand_pdbs\UNL.pdb
REMARK  3 active torsions:
REMARK  status: ('A' for Active; 'I' for Inactive)
REMARK    1  A    between atoms: C4_10  and  C5_12
REMARK    2  A    between atoms: C5_12  and  N3_13
REMARK    3  A    between atoms: C6_14  and  C7_16
REMARK                            x       y       z     vdW  Elec       q    Type
REMARK                         _______ _______ _______ _____ _____    ______ ____
ROOT
ATOM      1 BR1  UNL A 703      29.610  -2.719   3.360  0.00  0.00    +0.000 Br
ATOM      2  C13 UNL A 703      28.629  -1.261   4.029  0.00  0.00    +0.000 C 
ATOM      3  C1  UNL A 703      29.145  -0.483   5.095  0.00  0.00    +0.000 C 
ATOM      4  N1  UNL A 703      30.343  -0.823   5.613  0.00  0.00    +0.000 NA
ATOM      5  C12 UNL A 703      27.415  -0.966   3.467  0.00  0.00    +0.000 C 
ATOM      6  C11 UNL A 703      26.738   0.128   3.983  0.00  0.00    +0.000 C 
ATOM      7  C2  UNL A 703      27.283   0.872   5.031  0.00  0.00    +0.000 C 
ATOM      8  N2  UNL A 703      28.481   0.561   5.593  0.00  0.00    +0.000 NA
ATOM      9  N6  UNL A 703      25.538   0.697   3.649  0.00  0.00    +0.000 NA
ATOM     10  C4  UNL A 703      25.313   1.767   4.478  0.00  0.00    +0.000 C 
ATOM     11  C3  UNL A 703      26.381   1.889   5.320  0.00  0.00    +0.000 C 
ENDROOT
BRANCH  10  12
ATOM     12  C5  UNL A 703      24.070   2.579   4.317  0.00  0.00    +0.000 C 
BRANCH  12  13
ATOM     13  N3  UNL A 703      24.261   3.970   4.691  0.00  0.00    +0.000 NA
ATOM     14  C6  UNL A 703      25.244   4.702   4.170  0.00  0.00    +0.000 C 
ATOM     15  O1  UNL A 703      26.058   4.237   3.373  0.00  0.00    +0.000 OA
BRANCH  14  16
ATOM     16  C7  UNL A 703      25.318   6.137   4.631  0.00  0.00    +0.000 A 
ATOM     17  N5  UNL A 703      24.174   6.811   4.800  0.00  0.00    +0.000 NA
ATOM     18  C10 UNL A 703      24.277   8.069   5.225  0.00  0.00    +0.000 A 
ATOM     19  N4  UNL A 703      25.393   8.733   5.500  0.00  0.00    +0.000 NA
ATOM     20  C9  UNL A 703      26.521   8.044   5.337  0.00  0.00    +0.000 A 
ATOM     21  C8  UNL A 703      26.539   6.735   4.887  0.00  0.00    +0.000 A 
ENDBRANCH  14  16
ENDBRANCH  12  13
ENDBRANCH  10  12
TORSDOF 3
ENDMDL
