MODEL 1
REMARK VINA RESULT:      -1.5      0.000      0.000
REMARK  Name = ligand_pdbs\UNX.pdb
REMARK  0 active torsions:
REMARK  status: ('A' for Active; 'I' for Inactive)
REMARK                            x       y       z     vdW  Elec       q    Type
REMARK                         _______ _______ _______ _____ _____    ______ ____
ROOT
ATOM      1  UNK UNX A 502      19.552   9.566   0.526  0.00  0.00    +0.000 U 
ENDROOT
TORSDOF 0
ENDMDL
MODEL 2
REMARK VINA RESULT:      -1.4      6.027      6.027
REMARK  Name = ligand_pdbs\UNX.pdb
REMARK  0 active torsions:
REMARK  status: ('A' for Active; 'I' for Inactive)
REMARK                            x       y       z     vdW  Elec       q    Type
REMARK                         _______ _______ _______ _____ _____    ______ ____
ROOT
ATOM      1  UNK UNX A 502      22.483   9.267   5.784  0.00  0.00    +0.000 U 
ENDROOT
TORSDOF 0
ENDMDL
MODEL 3
REMARK VINA RESULT:      -1.3     13.700     13.700
REMARK  Name = ligand_pdbs\UNX.pdb
REMARK  0 active torsions:
REMARK  status: ('A' for Active; 'I' for Inactive)
REMARK                            x       y       z     vdW  Elec       q    Type
REMARK                         _______ _______ _______ _____ _____    ______ ____
ROOT
ATOM      1  UNK UNX A 502      33.143   7.853   0.393  0.00  0.00    +0.000 U 
ENDROOT
TORSDOF 0
ENDMDL
MODEL 4
REMARK VINA RESULT:      -1.3     17.753     17.753
REMARK  Name = ligand_pdbs\UNX.pdb
REMARK  0 active torsions:
REMARK  status: ('A' for Active; 'I' for Inactive)
REMARK                            x       y       z     vdW  Elec       q    Type
REMARK                         _______ _______ _______ _____ _____    ______ ____
ROOT
ATOM      1  UNK UNX A 502      21.254  -7.988  -1.503  0.00  0.00    +0.000 U 
ENDROOT
TORSDOF 0
ENDMDL
MODEL 5
REMARK VINA RESULT:      -1.1      7.125      7.125
REMARK  Name = ligand_pdbs\UNX.pdb
REMARK  0 active torsions:
REMARK  status: ('A' for Active; 'I' for Inactive)
REMARK                            x       y       z     vdW  Elec       q    Type
REMARK                         _______ _______ _______ _____ _____    ______ ____
ROOT
ATOM      1  UNK UNX A 502      15.400   4.633   3.558  0.00  0.00    +0.000 U 
ENDROOT
TORSDOF 0
ENDMDL
MODEL 6
REMARK VINA RESULT:      -1.1     15.108     15.108
REMARK  Name = ligand_pdbs\UNX.pdb
REMARK  0 active torsions:
REMARK  status: ('A' for Active; 'I' for Inactive)
REMARK                            x       y       z     vdW  Elec       q    Type
REMARK                         _______ _______ _______ _____ _____    ______ ____
ROOT
ATOM      1  UNK UNX A 502      34.189   7.714  -2.723  0.00  0.00    +0.000 U 
ENDROOT
TORSDOF 0
ENDMDL
MODEL 7
REMARK VINA RESULT:      -1.1     14.907     14.907
REMARK  Name = ligand_pdbs\UNX.pdb
REMARK  0 active torsions:
REMARK  status: ('A' for Active; 'I' for Inactive)
REMARK                            x       y       z     vdW  Elec       q    Type
REMARK                         _______ _______ _______ _____ _____    ______ ____
ROOT
ATOM      1  UNK UNX A 502      31.315   0.517   1.924  0.00  0.00    +0.000 U 
ENDROOT
TORSDOF 0
ENDMDL
MODEL 8
REMARK VINA RESULT:      -1.1      4.519      4.519
REMARK  Name = ligand_pdbs\UNX.pdb
REMARK  0 active torsions:
REMARK  status: ('A' for Active; 'I' for Inactive)
REMARK                            x       y       z     vdW  Elec       q    Type
REMARK                         _______ _______ _______ _____ _____    ______ ____
ROOT
ATOM      1  UNK UNX A 502      23.492  11.768   0.313  0.00  0.00    +0.000 U 
ENDROOT
TORSDOF 0
ENDMDL
MODEL 9
REMARK VINA RESULT:      -1.1     12.815     12.815
REMARK  Name = ligand_pdbs\UNX.pdb
REMARK  0 active torsions:
REMARK  status: ('A' for Active; 'I' for Inactive)
REMARK                            x       y       z     vdW  Elec       q    Type
REMARK                         _______ _______ _______ _____ _____    ______ ____
ROOT
ATOM      1  UNK UNX A 502      27.414  12.419  10.235  0.00  0.00    +0.000 U 
ENDROOT
TORSDOF 0
ENDMDL
