MODEL 1
REMARK VINA RESULT:      -8.5      0.000      0.000
REMARK  Name = ligand_pdbs\V6A.pdb
REMARK  7 active torsions:
REMARK  status: ('A' for Active; 'I' for Inactive)
REMARK    1  A    between atoms: C11_2  and  C12_3
REMARK    2  A    between atoms: C11_2  and  N02_25
REMARK    3  A    between atoms: C12_3  and  C13_4
REMARK    4  A    between atoms: C01_9  and  C07_15
REMARK    5  A    between atoms: C03_11  and  C08_16
REMARK    6  A    between atoms: C05_13  and  C09_17
REMARK    7  A    between atoms: N04_27  and  N05_28
REMARK                            x       y       z     vdW  Elec       q    Type
REMARK                         _______ _______ _______ _____ _____    ______ ____
ROOT
ATOM      1  C10 V6A C1103      23.789   4.034   4.625  0.00  0.00    +0.000 C 
ATOM      2  C09 V6A C1103      25.665   3.088   4.918  0.00  0.00    +0.000 C 
ATOM      3  N01 V6A C1103      24.393   2.876   4.765  0.00  0.00    +0.000 NA
ATOM      4  N02 V6A C1103      24.681   4.930   4.695  0.00  0.00    +0.000 N 
ATOM      5  N03 V6A C1103      25.840   4.346   4.879  0.00  0.00    +0.000 NA
ENDROOT
BRANCH   2  10
ATOM      6  C01 V6A C1103      28.848   1.407   5.817  0.00  0.00    +0.000 A 
ATOM      7  C02 V6A C1103      28.623   0.112   5.492  0.00  0.00    +0.000 A 
ATOM      8  C03 V6A C1103      27.422  -0.225   4.966  0.00  0.00    +0.000 A 
ATOM      9  C04 V6A C1103      26.433   0.707   4.775  0.00  0.00    +0.000 A 
ATOM     10  C05 V6A C1103      26.678   2.005   5.097  0.00  0.00    +0.000 A 
ATOM     11  C06 V6A C1103      27.889   2.345   5.619  0.00  0.00    +0.000 A 
BRANCH   6  12
ATOM     12  C07 V6A C1103      30.174   1.779   6.391  0.00  0.00    +0.000 C 
ATOM     13  F01 V6A C1103      30.740   0.808   7.024  0.00  0.00    +0.000 F 
ATOM     14  F02 V6A C1103      30.068   2.738   7.233  0.00  0.00    +0.000 F 
ATOM     15  F03 V6A C1103      30.968   2.216   5.485  0.00  0.00    +0.000 F 
ENDBRANCH   6  12
BRANCH   8  16
ATOM     16  C08 V6A C1103      27.168  -1.642   4.628  0.00  0.00    +0.000 C 
ATOM     17  F04 V6A C1103      28.200  -2.400   4.452  0.00  0.00    +0.000 F 
ATOM     18  F05 V6A C1103      26.514  -1.694   3.512  0.00  0.00    +0.000 F 
ATOM     19  F06 V6A C1103      26.552  -2.195   5.631  0.00  0.00    +0.000 F 
ENDBRANCH   8  16
ENDBRANCH   2  10
BRANCH   4  20
ATOM     20  C11 V6A C1103      24.419   6.351   4.563  0.00  0.00    +0.000 C 
BRANCH  20  21
ATOM     21  C12 V6A C1103      25.212   7.195   5.550  0.00  0.00    +0.000 C 
BRANCH  21  22
ATOM     22  C13 V6A C1103      25.413   8.637   5.086  0.00  0.00    +0.000 C 
ATOM     23  N04 V6A C1103      24.991   9.741   5.928  0.00  0.00    +0.000 NA
ATOM     24  O01 V6A C1103      25.906   8.850   4.040  0.00  0.00    +0.000 OA
BRANCH  23  29
ATOM     25  C14 V6A C1103      24.071  10.574   8.098  0.00  0.00    +0.000 C 
ATOM     26  C15 V6A C1103      23.889  10.327   9.456  0.00  0.00    +0.000 C 
ATOM     27  C16 V6A C1103      23.474  12.521   9.863  0.00  0.00    +0.000 C 
ATOM     28  C17 V6A C1103      23.660  12.771   8.510  0.00  0.00    +0.000 C 
ATOM     29  N05 V6A C1103      24.390   9.474   7.182  0.00  0.00    +0.000 NA
ATOM     30  N06 V6A C1103      23.595  11.292  10.302  0.00  0.00    +0.000 NA
ATOM     31  N07 V6A C1103      23.951  11.811   7.649  0.00  0.00    +0.000 NA
ENDBRANCH  23  29
ENDBRANCH  21  22
ENDBRANCH  20  21
ENDBRANCH   4  20
TORSDOF 7
ENDMDL
MODEL 2
REMARK VINA RESULT:      -8.4      0.191      3.005
REMARK  Name = ligand_pdbs\V6A.pdb
REMARK  7 active torsions:
REMARK  status: ('A' for Active; 'I' for Inactive)
REMARK    1  A    between atoms: C11_2  and  C12_3
REMARK    2  A    between atoms: C11_2  and  N02_25
REMARK    3  A    between atoms: C12_3  and  C13_4
REMARK    4  A    between atoms: C01_9  and  C07_15
REMARK    5  A    between atoms: C03_11  and  C08_16
REMARK    6  A    between atoms: C05_13  and  C09_17
REMARK    7  A    between atoms: N04_27  and  N05_28
REMARK                            x       y       z     vdW  Elec       q    Type
REMARK                         _______ _______ _______ _____ _____    ______ ____
ROOT
ATOM      1  C10 V6A C1103      23.858   3.904   4.637  0.00  0.00    +0.000 C 
ATOM      2  C09 V6A C1103      25.757   3.037   5.016  0.00  0.00    +0.000 C 
ATOM      3  N01 V6A C1103      24.506   2.772   4.789  0.00  0.00    +0.000 NA
ATOM      4  N02 V6A C1103      24.704   4.837   4.772  0.00  0.00    +0.000 N 
ATOM      5  N03 V6A C1103      25.876   4.302   5.010  0.00  0.00    +0.000 NA
ENDROOT
BRANCH   2  10
ATOM      6  C01 V6A C1103      27.443  -0.268   4.995  0.00  0.00    +0.000 A 
ATOM      7  C02 V6A C1103      28.649  -0.010   5.555  0.00  0.00    +0.000 A 
ATOM      8  C03 V6A C1103      28.921   1.254   5.954  0.00  0.00    +0.000 A 
ATOM      9  C04 V6A C1103      28.016   2.273   5.786  0.00  0.00    +0.000 A 
ATOM     10  C05 V6A C1103      26.806   1.996   5.231  0.00  0.00    +0.000 A 
ATOM     11  C06 V6A C1103      26.529   0.722   4.838  0.00  0.00    +0.000 A 
BRANCH   6  12
ATOM     12  C07 V6A C1103      27.141  -1.663   4.562  0.00  0.00    +0.000 C 
ATOM     13  F01 V6A C1103      26.501  -2.341   5.453  0.00  0.00    +0.000 F 
ATOM     14  F02 V6A C1103      28.213  -2.320   4.319  0.00  0.00    +0.000 F 
ATOM     15  F03 V6A C1103      26.484  -1.678   3.462  0.00  0.00    +0.000 F 
ENDBRANCH   6  12
BRANCH   8  16
ATOM     16  C08 V6A C1103      30.244   1.541   6.548  0.00  0.00    +0.000 C 
ATOM     17  F04 V6A C1103      31.229   1.727   5.732  0.00  0.00    +0.000 F 
ATOM     18  F05 V6A C1103      30.597   0.536   7.285  0.00  0.00    +0.000 F 
ATOM     19  F06 V6A C1103      30.165   2.669   7.192  0.00  0.00    +0.000 F 
ENDBRANCH   8  16
ENDBRANCH   2  10
BRANCH   4  20
ATOM     20  C11 V6A C1103      24.385   6.248   4.652  0.00  0.00    +0.000 C 
BRANCH  20  21
ATOM     21  C12 V6A C1103      25.200   7.123   5.594  0.00  0.00    +0.000 C 
BRANCH  21  22
ATOM     22  C13 V6A C1103      25.389   8.549   5.080  0.00  0.00    +0.000 C 
ATOM     23  N04 V6A C1103      24.983   9.679   5.894  0.00  0.00    +0.000 NA
ATOM     24  O01 V6A C1103      25.860   8.729   4.018  0.00  0.00    +0.000 OA
BRANCH  23  29
ATOM     25  C14 V6A C1103      24.080  10.582   8.043  0.00  0.00    +0.000 C 
ATOM     26  C15 V6A C1103      23.925  10.388   9.414  0.00  0.00    +0.000 C 
ATOM     27  C16 V6A C1103      23.470  12.588   9.738  0.00  0.00    +0.000 C 
ATOM     28  C17 V6A C1103      23.629  12.785   8.372  0.00  0.00    +0.000 C 
ATOM     29  N05 V6A C1103      24.407   9.452   7.169  0.00  0.00    +0.000 NA
ATOM     30  N06 V6A C1103      23.623  11.381  10.225  0.00  0.00    +0.000 NA
ATOM     31  N07 V6A C1103      23.926  11.797   7.546  0.00  0.00    +0.000 NA
ENDBRANCH  23  29
ENDBRANCH  21  22
ENDBRANCH  20  21
ENDBRANCH   4  20
TORSDOF 7
ENDMDL
MODEL 3
REMARK VINA RESULT:      -7.5      5.538      9.377
REMARK  Name = ligand_pdbs\V6A.pdb
REMARK  7 active torsions:
REMARK  status: ('A' for Active; 'I' for Inactive)
REMARK    1  A    between atoms: C11_2  and  C12_3
REMARK    2  A    between atoms: C11_2  and  N02_25
REMARK    3  A    between atoms: C12_3  and  C13_4
REMARK    4  A    between atoms: C01_9  and  C07_15
REMARK    5  A    between atoms: C03_11  and  C08_16
REMARK    6  A    between atoms: C05_13  and  C09_17
REMARK    7  A    between atoms: N04_27  and  N05_28
REMARK                            x       y       z     vdW  Elec       q    Type
REMARK                         _______ _______ _______ _____ _____    ______ ____
ROOT
ATOM      1  C10 V6A C1103      29.691   2.519   6.052  0.00  0.00    +0.000 C 
ATOM      2  C09 V6A C1103      27.994   3.459   5.193  0.00  0.00    +0.000 C 
ATOM      3  N01 V6A C1103      28.807   3.478   6.206  0.00  0.00    +0.000 NA
ATOM      4  N02 V6A C1103      29.415   1.930   4.966  0.00  0.00    +0.000 N 
ATOM      5  N03 V6A C1103      28.365   2.508   4.437  0.00  0.00    +0.000 NA
ENDROOT
BRANCH   2  10
ATOM      6  C01 V6A C1103      24.536   4.704   4.688  0.00  0.00    +0.000 A 
ATOM      7  C02 V6A C1103      24.682   6.050   4.691  0.00  0.00    +0.000 A 
ATOM      8  C03 V6A C1103      25.922   6.567   4.852  0.00  0.00    +0.000 A 
ATOM      9  C04 V6A C1103      27.020   5.763   5.030  0.00  0.00    +0.000 A 
ATOM     10  C05 V6A C1103      26.859   4.412   5.015  0.00  0.00    +0.000 A 
ATOM     11  C06 V6A C1103      25.611   3.893   4.844  0.00  0.00    +0.000 A 
BRANCH   6  12
ATOM     12  C07 V6A C1103      23.169   4.135   4.503  0.00  0.00    +0.000 C 
ATOM     13  F01 V6A C1103      22.231   4.976   4.778  0.00  0.00    +0.000 F 
ATOM     14  F02 V6A C1103      22.975   3.126   5.267  0.00  0.00    +0.000 F 
ATOM     15  F03 V6A C1103      23.007   3.689   3.313  0.00  0.00    +0.000 F 
ENDBRANCH   6  12
BRANCH   8  16
ATOM     16  C08 V6A C1103      26.081   8.037   4.874  0.00  0.00    +0.000 C 
ATOM     17  F04 V6A C1103      25.698   8.687   3.824  0.00  0.00    +0.000 F 
ATOM     18  F05 V6A C1103      27.338   8.319   5.008  0.00  0.00    +0.000 F 
ATOM     19  F06 V6A C1103      25.326   8.514   5.820  0.00  0.00    +0.000 F 
ENDBRANCH   8  16
ENDBRANCH   2  10
BRANCH   4  20
ATOM     20  C11 V6A C1103      30.178   0.819   4.426  0.00  0.00    +0.000 C 
BRANCH  20  21
ATOM     21  C12 V6A C1103      29.767  -0.524   5.013  0.00  0.00    +0.000 C 
BRANCH  21  22
ATOM     22  C13 V6A C1103      29.838  -1.669   4.006  0.00  0.00    +0.000 C 
ATOM     23  N04 V6A C1103      28.630  -2.367   3.606  0.00  0.00    +0.000 NA
ATOM     24  O01 V6A C1103      30.877  -1.990   3.558  0.00  0.00    +0.000 OA
BRANCH  23  29
ATOM     25  C14 V6A C1103      26.690  -0.792   3.654  0.00  0.00    +0.000 C 
ATOM     26  C15 V6A C1103      25.721  -0.161   4.431  0.00  0.00    +0.000 C 
ATOM     27  C16 V6A C1103      25.349   1.392   2.818  0.00  0.00    +0.000 C 
ATOM     28  C17 V6A C1103      26.317   0.768   2.043  0.00  0.00    +0.000 C 
ATOM     29  N05 V6A C1103      27.384  -1.981   4.158  0.00  0.00    +0.000 NA
ATOM     30  N06 V6A C1103      25.075   0.903   4.003  0.00  0.00    +0.000 NA
ATOM     31  N07 V6A C1103      26.971  -0.304   2.458  0.00  0.00    +0.000 NA
ENDBRANCH  23  29
ENDBRANCH  21  22
ENDBRANCH  20  21
ENDBRANCH   4  20
TORSDOF 7
ENDMDL
MODEL 4
REMARK VINA RESULT:      -7.2      5.517      8.934
REMARK  Name = ligand_pdbs\V6A.pdb
REMARK  7 active torsions:
REMARK  status: ('A' for Active; 'I' for Inactive)
REMARK    1  A    between atoms: C11_2  and  C12_3
REMARK    2  A    between atoms: C11_2  and  N02_25
REMARK    3  A    between atoms: C12_3  and  C13_4
REMARK    4  A    between atoms: C01_9  and  C07_15
REMARK    5  A    between atoms: C03_11  and  C08_16
REMARK    6  A    between atoms: C05_13  and  C09_17
REMARK    7  A    between atoms: N04_27  and  N05_28
REMARK                            x       y       z     vdW  Elec       q    Type
REMARK                         _______ _______ _______ _____ _____    ______ ____
ROOT
ATOM      1  C10 V6A C1103      29.679   2.610   6.048  0.00  0.00    +0.000 C 
ATOM      2  C09 V6A C1103      27.884   3.384   5.224  0.00  0.00    +0.000 C 
ATOM      3  N01 V6A C1103      28.749   3.528   6.182  0.00  0.00    +0.000 NA
ATOM      4  N02 V6A C1103      29.379   1.922   5.028  0.00  0.00    +0.000 N 
ATOM      5  N03 V6A C1103      28.267   2.398   4.521  0.00  0.00    +0.000 NA
ENDROOT
BRANCH   2  10
ATOM      6  C01 V6A C1103      25.824   6.453   4.897  0.00  0.00    +0.000 A 
ATOM      7  C02 V6A C1103      24.572   5.973   4.708  0.00  0.00    +0.000 A 
ATOM      8  C03 V6A C1103      24.387   4.633   4.694  0.00  0.00    +0.000 A 
ATOM      9  C04 V6A C1103      25.435   3.759   4.845  0.00  0.00    +0.000 A 
ATOM     10  C05 V6A C1103      26.685   4.256   5.043  0.00  0.00    +0.000 A 
ATOM     11  C06 V6A C1103      26.869   5.606   5.066  0.00  0.00    +0.000 A 
BRANCH   6  12
ATOM     12  C07 V6A C1103      26.027   7.931   4.919  0.00  0.00    +0.000 C 
ATOM     13  F01 V6A C1103      25.357   8.518   5.853  0.00  0.00    +0.000 F 
ATOM     14  F02 V6A C1103      25.652   8.472   3.821  0.00  0.00    +0.000 F 
ATOM     15  F03 V6A C1103      27.267   8.230   5.033  0.00  0.00    +0.000 F 
ENDBRANCH   6  12
BRANCH   8  16
ATOM     16  C08 V6A C1103      23.023   4.107   4.470  0.00  0.00    +0.000 C 
ATOM     17  F04 V6A C1103      22.706   3.786   3.259  0.00  0.00    +0.000 F 
ATOM     18  F05 V6A C1103      22.165   5.013   4.817  0.00  0.00    +0.000 F 
ATOM     19  F06 V6A C1103      22.906   2.988   5.123  0.00  0.00    +0.000 F 
ENDBRANCH   8  16
ENDBRANCH   2  10
BRANCH   4  20
ATOM     20  C11 V6A C1103      30.175   0.816   4.530  0.00  0.00    +0.000 C 
BRANCH  20  21
ATOM     21  C12 V6A C1103      29.702  -0.536   5.044  0.00  0.00    +0.000 C 
BRANCH  21  22
ATOM     22  C13 V6A C1103      29.824  -1.652   4.009  0.00  0.00    +0.000 C 
ATOM     23  N04 V6A C1103      28.642  -2.358   3.552  0.00  0.00    +0.000 NA
ATOM     24  O01 V6A C1103      30.882  -1.944   3.587  0.00  0.00    +0.000 OA
BRANCH  23  29
ATOM     25  C14 V6A C1103      26.670  -0.821   3.572  0.00  0.00    +0.000 C 
ATOM     26  C15 V6A C1103      25.666  -0.225   4.331  0.00  0.00    +0.000 C 
ATOM     27  C16 V6A C1103      25.313   1.354   2.739  0.00  0.00    +0.000 C 
ATOM     28  C17 V6A C1103      26.317   0.764   1.982  0.00  0.00    +0.000 C 
ATOM     29  N05 V6A C1103      27.372  -2.006   4.073  0.00  0.00    +0.000 NA
ATOM     30  N06 V6A C1103      25.013   0.836   3.905  0.00  0.00    +0.000 NA
ATOM     31  N07 V6A C1103      26.978  -0.303   2.395  0.00  0.00    +0.000 NA
ENDBRANCH  23  29
ENDBRANCH  21  22
ENDBRANCH  20  21
ENDBRANCH   4  20
TORSDOF 7
ENDMDL
MODEL 5
REMARK VINA RESULT:      -6.6      3.567      5.506
REMARK  Name = ligand_pdbs\V6A.pdb
REMARK  7 active torsions:
REMARK  status: ('A' for Active; 'I' for Inactive)
REMARK    1  A    between atoms: C11_2  and  C12_3
REMARK    2  A    between atoms: C11_2  and  N02_25
REMARK    3  A    between atoms: C12_3  and  C13_4
REMARK    4  A    between atoms: C01_9  and  C07_15
REMARK    5  A    between atoms: C03_11  and  C08_16
REMARK    6  A    between atoms: C05_13  and  C09_17
REMARK    7  A    between atoms: N04_27  and  N05_28
REMARK                            x       y       z     vdW  Elec       q    Type
REMARK                         _______ _______ _______ _____ _____    ______ ____
ROOT
ATOM      1  C10 V6A C1103      27.636   5.817   4.778  0.00  0.00    +0.000 C 
ATOM      2  C09 V6A C1103      27.974   3.773   4.320  0.00  0.00    +0.000 C 
ATOM      3  N01 V6A C1103      28.193   4.705   5.198  0.00  0.00    +0.000 NA
ATOM      4  N02 V6A C1103      27.091   5.562   3.663  0.00  0.00    +0.000 N 
ATOM      5  N03 V6A C1103      27.303   4.300   3.379  0.00  0.00    +0.000 NA
ENDROOT
BRANCH   2  10
ATOM      6  C01 V6A C1103      29.679   0.794   5.728  0.00  0.00    +0.000 A 
ATOM      7  C02 V6A C1103      29.380  -0.188   4.844  0.00  0.00    +0.000 A 
ATOM      8  C03 V6A C1103      28.618   0.119   3.768  0.00  0.00    +0.000 A 
ATOM      9  C04 V6A C1103      28.132   1.388   3.568  0.00  0.00    +0.000 A 
ATOM     10  C05 V6A C1103      28.450   2.365   4.459  0.00  0.00    +0.000 A 
ATOM     11  C06 V6A C1103      29.224   2.057   5.537  0.00  0.00    +0.000 A 
BRANCH   6  12
ATOM     12  C07 V6A C1103      30.525   0.456   6.910  0.00  0.00    +0.000 C 
ATOM     13  F01 V6A C1103      29.961  -0.382   7.711  0.00  0.00    +0.000 F 
ATOM     14  F02 V6A C1103      30.787   1.496   7.610  0.00  0.00    +0.000 F 
ATOM     15  F03 V6A C1103      31.667  -0.001   6.550  0.00  0.00    +0.000 F 
ENDBRANCH   6  12
BRANCH   8  16
ATOM     16  C08 V6A C1103      28.274  -0.955   2.812  0.00  0.00    +0.000 C 
ATOM     17  F04 V6A C1103      27.826  -0.594   1.655  0.00  0.00    +0.000 F 
ATOM     18  F05 V6A C1103      27.338  -1.687   3.327  0.00  0.00    +0.000 F 
ATOM     19  F06 V6A C1103      29.362  -1.610   2.528  0.00  0.00    +0.000 F 
ENDBRANCH   8  16
ENDBRANCH   2  10
BRANCH   4  20
ATOM     20  C11 V6A C1103      26.347   6.532   2.880  0.00  0.00    +0.000 C 
BRANCH  20  21
ATOM     21  C12 V6A C1103      24.870   6.577   3.241  0.00  0.00    +0.000 C 
BRANCH  21  22
ATOM     22  C13 V6A C1103      24.611   6.463   4.742  0.00  0.00    +0.000 C 
ATOM     23  N04 V6A C1103      23.971   5.279   5.286  0.00  0.00    +0.000 NA
ATOM     24  O01 V6A C1103      24.927   7.340   5.458  0.00  0.00    +0.000 OA
BRANCH  23  29
ATOM     25  C14 V6A C1103      24.223   2.914   4.517  0.00  0.00    +0.000 C 
ATOM     26  C15 V6A C1103      24.183   2.028   3.442  0.00  0.00    +0.000 C 
ATOM     27  C16 V6A C1103      25.354   0.468   4.602  0.00  0.00    +0.000 C 
ATOM     28  C17 V6A C1103      25.400   1.351   5.673  0.00  0.00    +0.000 C 
ATOM     29  N05 V6A C1103      23.586   4.230   4.415  0.00  0.00    +0.000 NA
ATOM     30  N06 V6A C1103      24.739   0.837   3.505  0.00  0.00    +0.000 NA
ATOM     31  N07 V6A C1103      24.842   2.548   5.626  0.00  0.00    +0.000 NA
ENDBRANCH  23  29
ENDBRANCH  21  22
ENDBRANCH  20  21
ENDBRANCH   4  20
TORSDOF 7
ENDMDL
MODEL 6
REMARK VINA RESULT:      -6.3      3.548      6.006
REMARK  Name = ligand_pdbs\V6A.pdb
REMARK  7 active torsions:
REMARK  status: ('A' for Active; 'I' for Inactive)
REMARK    1  A    between atoms: C11_2  and  C12_3
REMARK    2  A    between atoms: C11_2  and  N02_25
REMARK    3  A    between atoms: C12_3  and  C13_4
REMARK    4  A    between atoms: C01_9  and  C07_15
REMARK    5  A    between atoms: C03_11  and  C08_16
REMARK    6  A    between atoms: C05_13  and  C09_17
REMARK    7  A    between atoms: N04_27  and  N05_28
REMARK                            x       y       z     vdW  Elec       q    Type
REMARK                         _______ _______ _______ _____ _____    ______ ____
ROOT
ATOM      1  C10 V6A C1103      27.418   5.797   5.050  0.00  0.00    +0.000 C 
ATOM      2  C09 V6A C1103      27.991   3.807   4.585  0.00  0.00    +0.000 C 
ATOM      3  N01 V6A C1103      27.966   4.702   5.526  0.00  0.00    +0.000 NA
ATOM      4  N02 V6A C1103      27.118   5.567   3.842  0.00  0.00    +0.000 N 
ATOM      5  N03 V6A C1103      27.475   4.339   3.553  0.00  0.00    +0.000 NA
ENDROOT
BRANCH   2  10
ATOM      6  C01 V6A C1103      28.679   0.224   3.916  0.00  0.00    +0.000 A 
ATOM      7  C02 V6A C1103      29.479  -0.141   4.946  0.00  0.00    +0.000 A 
ATOM      8  C03 V6A C1103      29.798   0.786   5.879  0.00  0.00    +0.000 A 
ATOM      9  C04 V6A C1103      29.346   2.079   5.793  0.00  0.00    +0.000 A 
ATOM     10  C05 V6A C1103      28.535   2.428   4.758  0.00  0.00    +0.000 A 
ATOM     11  C06 V6A C1103      28.209   1.492   3.824  0.00  0.00    +0.000 A 
BRANCH   6  12
ATOM     12  C07 V6A C1103      28.323  -0.801   2.892  0.00  0.00    +0.000 C 
ATOM     13  F01 V6A C1103      29.241  -1.692   2.729  0.00  0.00    +0.000 F 
ATOM     14  F02 V6A C1103      28.138  -0.268   1.742  0.00  0.00    +0.000 F 
ATOM     15  F03 V6A C1103      27.215  -1.378   3.175  0.00  0.00    +0.000 F 
ENDBRANCH   6  12
BRANCH   8  16
ATOM     16  C08 V6A C1103      30.687   0.394   6.994  0.00  0.00    +0.000 C 
ATOM     17  F04 V6A C1103      31.055   1.327   7.810  0.00  0.00    +0.000 F 
ATOM     18  F05 V6A C1103      31.786  -0.083   6.503  0.00  0.00    +0.000 F 
ATOM     19  F06 V6A C1103      30.040  -0.439   7.756  0.00  0.00    +0.000 F 
ENDBRANCH   8  16
ENDBRANCH   2  10
BRANCH   4  20
ATOM     20  C11 V6A C1103      26.467   6.526   2.968  0.00  0.00    +0.000 C 
BRANCH  20  21
ATOM     21  C12 V6A C1103      24.959   6.584   3.170  0.00  0.00    +0.000 C 
BRANCH  21  22
ATOM     22  C13 V6A C1103      24.546   6.580   4.640  0.00  0.00    +0.000 C 
ATOM     23  N04 V6A C1103      23.798   5.462   5.186  0.00  0.00    +0.000 NA
ATOM     24  O01 V6A C1103      24.831   7.488   5.330  0.00  0.00    +0.000 OA
BRANCH  23  29
ATOM     25  C14 V6A C1103      24.122   3.081   4.498  0.00  0.00    +0.000 C 
ATOM     26  C15 V6A C1103      24.117   2.160   3.453  0.00  0.00    +0.000 C 
ATOM     27  C16 V6A C1103      25.315   0.671   4.677  0.00  0.00    +0.000 C 
ATOM     28  C17 V6A C1103      25.324   1.588   5.719  0.00  0.00    +0.000 C 
ATOM     29  N05 V6A C1103      23.451   4.376   4.346  0.00  0.00    +0.000 NA
ATOM     30  N06 V6A C1103      24.704   0.986   3.562  0.00  0.00    +0.000 NA
ATOM     31  N07 V6A C1103      24.736   2.768   5.626  0.00  0.00    +0.000 NA
ENDBRANCH  23  29
ENDBRANCH  21  22
ENDBRANCH  20  21
ENDBRANCH   4  20
TORSDOF 7
ENDMDL
MODEL 7
REMARK VINA RESULT:      -6.0      5.983      8.589
REMARK  Name = ligand_pdbs\V6A.pdb
REMARK  7 active torsions:
REMARK  status: ('A' for Active; 'I' for Inactive)
REMARK    1  A    between atoms: C11_2  and  C12_3
REMARK    2  A    between atoms: C11_2  and  N02_25
REMARK    3  A    between atoms: C12_3  and  C13_4
REMARK    4  A    between atoms: C01_9  and  C07_15
REMARK    5  A    between atoms: C03_11  and  C08_16
REMARK    6  A    between atoms: C05_13  and  C09_17
REMARK    7  A    between atoms: N04_27  and  N05_28
REMARK                            x       y       z     vdW  Elec       q    Type
REMARK                         _______ _______ _______ _____ _____    ______ ____
ROOT
ATOM      1  C10 V6A C1103      27.199  -0.380   2.121  0.00  0.00    +0.000 C 
ATOM      2  C09 V6A C1103      27.007   1.479   3.125  0.00  0.00    +0.000 C 
ATOM      3  N01 V6A C1103      26.405   0.644   2.333  0.00  0.00    +0.000 NA
ATOM      4  N02 V6A C1103      28.264  -0.166   2.772  0.00  0.00    +0.000 N 
ATOM      5  N03 V6A C1103      28.147   0.984   3.390  0.00  0.00    +0.000 NA
ENDROOT
BRANCH   2  10
ATOM      6  C01 V6A C1103      24.454   3.942   4.210  0.00  0.00    +0.000 A 
ATOM      7  C02 V6A C1103      25.180   5.053   4.477  0.00  0.00    +0.000 A 
ATOM      8  C03 V6A C1103      26.521   5.009   4.296  0.00  0.00    +0.000 A 
ATOM      9  C04 V6A C1103      27.153   3.867   3.871  0.00  0.00    +0.000 A 
ATOM     10  C05 V6A C1103      26.409   2.763   3.598  0.00  0.00    +0.000 A 
ATOM     11  C06 V6A C1103      25.059   2.810   3.772  0.00  0.00    +0.000 A 
BRANCH   6  12
ATOM     12  C07 V6A C1103      22.975   3.993   4.403  0.00  0.00    +0.000 C 
ATOM     13  F01 V6A C1103      22.506   2.944   4.990  0.00  0.00    +0.000 F 
ATOM     14  F02 V6A C1103      22.359   4.078   3.284  0.00  0.00    +0.000 F 
ATOM     15  F03 V6A C1103      22.627   5.038   5.057  0.00  0.00    +0.000 F 
ENDBRANCH   6  12
BRANCH   8  16
ATOM     16  C08 V6A C1103      27.318   6.216   4.604  0.00  0.00    +0.000 C 
ATOM     17  F04 V6A C1103      27.645   6.407   5.840  0.00  0.00    +0.000 F 
ATOM     18  F05 V6A C1103      26.636   7.263   4.266  0.00  0.00    +0.000 F 
ATOM     19  F06 V6A C1103      28.465   6.112   3.998  0.00  0.00    +0.000 F 
ENDBRANCH   8  16
ENDBRANCH   2  10
BRANCH   4  20
ATOM     20  C11 V6A C1103      29.389  -1.083   2.816  0.00  0.00    +0.000 C 
BRANCH  20  21
ATOM     21  C12 V6A C1103      29.132  -2.296   3.699  0.00  0.00    +0.000 C 
BRANCH  21  22
ATOM     22  C13 V6A C1103      27.884  -2.156   4.568  0.00  0.00    +0.000 C 
ATOM     23  N04 V6A C1103      27.907  -1.312   5.749  0.00  0.00    +0.000 NA
ATOM     24  O01 V6A C1103      26.905  -2.740   4.283  0.00  0.00    +0.000 OA
BRANCH  23  29
ATOM     25  C14 V6A C1103      29.067   0.829   6.316  0.00  0.00    +0.000 C 
ATOM     26  C15 V6A C1103      30.239   1.576   6.229  0.00  0.00    +0.000 C 
ATOM     27  C16 V6A C1103      29.127   3.493   6.721  0.00  0.00    +0.000 C 
ATOM     28  C17 V6A C1103      27.956   2.751   6.804  0.00  0.00    +0.000 C 
ATOM     29  N05 V6A C1103      29.095  -0.619   6.091  0.00  0.00    +0.000 NA
ATOM     30  N06 V6A C1103      30.247   2.877   6.433  0.00  0.00    +0.000 NA
ATOM     31  N07 V6A C1103      27.933   1.444   6.605  0.00  0.00    +0.000 NA
ENDBRANCH  23  29
ENDBRANCH  21  22
ENDBRANCH  20  21
ENDBRANCH   4  20
TORSDOF 7
ENDMDL
MODEL 8
REMARK VINA RESULT:      -6.0      3.056      4.698
REMARK  Name = ligand_pdbs\V6A.pdb
REMARK  7 active torsions:
REMARK  status: ('A' for Active; 'I' for Inactive)
REMARK    1  A    between atoms: C11_2  and  C12_3
REMARK    2  A    between atoms: C11_2  and  N02_25
REMARK    3  A    between atoms: C12_3  and  C13_4
REMARK    4  A    between atoms: C01_9  and  C07_15
REMARK    5  A    between atoms: C03_11  and  C08_16
REMARK    6  A    between atoms: C05_13  and  C09_17
REMARK    7  A    between atoms: N04_27  and  N05_28
REMARK                            x       y       z     vdW  Elec       q    Type
REMARK                         _______ _______ _______ _____ _____    ______ ____
ROOT
ATOM      1  C10 V6A C1103      23.484   2.669   4.059  0.00  0.00    +0.000 C 
ATOM      2  C09 V6A C1103      25.290   1.765   4.711  0.00  0.00    +0.000 C 
ATOM      3  N01 V6A C1103      24.177   1.554   4.075  0.00  0.00    +0.000 NA
ATOM      4  N02 V6A C1103      24.165   3.539   4.677  0.00  0.00    +0.000 N 
ATOM      5  N03 V6A C1103      25.280   2.980   5.083  0.00  0.00    +0.000 NA
ENDROOT
BRANCH   2  10
ATOM      6  C01 V6A C1103      28.417   0.167   5.905  0.00  0.00    +0.000 A 
ATOM      7  C02 V6A C1103      28.342  -1.088   5.402  0.00  0.00    +0.000 A 
ATOM      8  C03 V6A C1103      27.263  -1.424   4.656  0.00  0.00    +0.000 A 
ATOM      9  C04 V6A C1103      26.247  -0.533   4.419  0.00  0.00    +0.000 A 
ATOM     10  C05 V6A C1103      26.342   0.727   4.923  0.00  0.00    +0.000 A 
ATOM     11  C06 V6A C1103      27.431   1.066   5.666  0.00  0.00    +0.000 A 
BRANCH   6  12
ATOM     12  C07 V6A C1103      29.609   0.538   6.722  0.00  0.00    +0.000 C 
ATOM     13  F01 V6A C1103      29.642   1.790   7.027  0.00  0.00    +0.000 F 
ATOM     14  F02 V6A C1103      30.700   0.296   6.096  0.00  0.00    +0.000 F 
ATOM     15  F03 V6A C1103      29.677  -0.163   7.793  0.00  0.00    +0.000 F 
ENDBRANCH   6  12
BRANCH   8  16
ATOM     16  C08 V6A C1103      27.171  -2.799   4.121  0.00  0.00    +0.000 C 
ATOM     17  F04 V6A C1103      26.650  -2.941   2.947  0.00  0.00    +0.000 F 
ATOM     18  F05 V6A C1103      26.425  -3.504   4.911  0.00  0.00    +0.000 F 
ATOM     19  F06 V6A C1103      28.378  -3.262   3.978  0.00  0.00    +0.000 F 
ENDBRANCH   8  16
ENDBRANCH   2  10
BRANCH   4  20
ATOM     20  C11 V6A C1103      23.751   4.918   4.860  0.00  0.00    +0.000 C 
BRANCH  20  21
ATOM     21  C12 V6A C1103      24.771   5.747   5.626  0.00  0.00    +0.000 C 
BRANCH  21  22
ATOM     22  C13 V6A C1103      24.977   7.142   5.040  0.00  0.00    +0.000 C 
ATOM     23  N04 V6A C1103      26.317   7.679   4.882  0.00  0.00    +0.000 NA
ATOM     24  O01 V6A C1103      24.046   7.786   4.722  0.00  0.00    +0.000 OA
BRANCH  23  29
ATOM     25  C14 V6A C1103      27.713   5.622   4.615  0.00  0.00    +0.000 C 
ATOM     26  C15 V6A C1103      28.509   4.667   5.242  0.00  0.00    +0.000 C 
ATOM     27  C16 V6A C1103      28.297   3.247   3.483  0.00  0.00    +0.000 C 
ATOM     28  C17 V6A C1103      27.499   4.196   2.859  0.00  0.00    +0.000 C 
ATOM     29  N05 V6A C1103      27.432   6.900   5.277  0.00  0.00    +0.000 NA
ATOM     30  N06 V6A C1103      28.786   3.513   4.670  0.00  0.00    +0.000 NA
ATOM     31  N07 V6A C1103      27.217   5.360   3.418  0.00  0.00    +0.000 NA
ENDBRANCH  23  29
ENDBRANCH  21  22
ENDBRANCH  20  21
ENDBRANCH   4  20
TORSDOF 7
ENDMDL
MODEL 9
REMARK VINA RESULT:      -5.8      6.032      8.205
REMARK  Name = ligand_pdbs\V6A.pdb
REMARK  7 active torsions:
REMARK  status: ('A' for Active; 'I' for Inactive)
REMARK    1  A    between atoms: C11_2  and  C12_3
REMARK    2  A    between atoms: C11_2  and  N02_25
REMARK    3  A    between atoms: C12_3  and  C13_4
REMARK    4  A    between atoms: C01_9  and  C07_15
REMARK    5  A    between atoms: C03_11  and  C08_16
REMARK    6  A    between atoms: C05_13  and  C09_17
REMARK    7  A    between atoms: N04_27  and  N05_28
REMARK                            x       y       z     vdW  Elec       q    Type
REMARK                         _______ _______ _______ _____ _____    ______ ____
ROOT
ATOM      1  C10 V6A C1103      27.258  -0.387   2.058  0.00  0.00    +0.000 C 
ATOM      2  C09 V6A C1103      26.941   1.422   3.121  0.00  0.00    +0.000 C 
ATOM      3  N01 V6A C1103      26.421   0.605   2.256  0.00  0.00    +0.000 NA
ATOM      4  N02 V6A C1103      28.268  -0.171   2.790  0.00  0.00    +0.000 N 
ATOM      5  N03 V6A C1103      28.074   0.948   3.444  0.00  0.00    +0.000 NA
ENDROOT
BRANCH   2  10
ATOM      6  C01 V6A C1103      26.511   4.907   4.317  0.00  0.00    +0.000 A 
ATOM      7  C02 V6A C1103      25.172   5.021   4.483  0.00  0.00    +0.000 A 
ATOM      8  C03 V6A C1103      24.392   3.948   4.211  0.00  0.00    +0.000 A 
ATOM      9  C04 V6A C1103      24.924   2.768   3.756  0.00  0.00    +0.000 A 
ATOM     10  C05 V6A C1103      26.272   2.667   3.603  0.00  0.00    +0.000 A 
ATOM     11  C06 V6A C1103      27.057   3.744   3.886  0.00  0.00    +0.000 A 
BRANCH   6  12
ATOM     12  C07 V6A C1103      27.370   6.088   4.624  0.00  0.00    +0.000 C 
ATOM     13  F01 V6A C1103      26.822   7.209   4.301  0.00  0.00    +0.000 F 
ATOM     14  F02 V6A C1103      28.479   6.039   3.986  0.00  0.00    +0.000 F 
ATOM     15  F03 V6A C1103      27.699   6.115   5.862  0.00  0.00    +0.000 F 
ENDBRANCH   6  12
BRANCH   8  16
ATOM     16  C08 V6A C1103      22.928   4.076   4.374  0.00  0.00    +0.000 C 
ATOM     17  F04 V6A C1103      22.216   4.119   3.296  0.00  0.00    +0.000 F 
ATOM     18  F05 V6A C1103      22.673   5.184   4.994  0.00  0.00    +0.000 F 
ATOM     19  F06 V6A C1103      22.493   3.013   4.985  0.00  0.00    +0.000 F 
ENDBRANCH   8  16
ENDBRANCH   2  10
BRANCH   4  20
ATOM     20  C11 V6A C1103      29.415  -1.057   2.875  0.00  0.00    +0.000 C 
BRANCH  20  21
ATOM     21  C12 V6A C1103      29.134  -2.316   3.682  0.00  0.00    +0.000 C 
BRANCH  21  22
ATOM     22  C13 V6A C1103      27.902  -2.196   4.578  0.00  0.00    +0.000 C 
ATOM     23  N04 V6A C1103      27.953  -1.395   5.787  0.00  0.00    +0.000 NA
ATOM     24  O01 V6A C1103      26.913  -2.761   4.289  0.00  0.00    +0.000 OA
BRANCH  23  29
ATOM     25  C14 V6A C1103      29.159   0.729   6.319  0.00  0.00    +0.000 C 
ATOM     26  C15 V6A C1103      30.353   1.443   6.234  0.00  0.00    +0.000 C 
ATOM     27  C16 V6A C1103      29.284   3.400   6.655  0.00  0.00    +0.000 C 
ATOM     28  C17 V6A C1103      28.093   2.692   6.736  0.00  0.00    +0.000 C 
ATOM     29  N05 V6A C1103      29.153  -0.725   6.132  0.00  0.00    +0.000 NA
ATOM     30  N06 V6A C1103      30.392   2.748   6.404  0.00  0.00    +0.000 NA
ATOM     31  N07 V6A C1103      28.038   1.381   6.571  0.00  0.00    +0.000 NA
ENDBRANCH  23  29
ENDBRANCH  21  22
ENDBRANCH  20  21
ENDBRANCH   4  20
TORSDOF 7
ENDMDL
