MODEL 1
REMARK VINA RESULT:      -0.5      0.000      0.000
REMARK  Name = ligand_pdbs\WFM.pdb
REMARK  3 active torsions:
REMARK  status: ('A' for Active; 'I' for Inactive)
REMARK    1  A    between atoms: C4_3  and  O1_19
REMARK    2  A    between atoms: O1_19  and  C3_20
REMARK    3  A    between atoms: C14_24  and  N2_28
REMARK                            x       y       z     vdW  Elec       q    Type
REMARK                         _______ _______ _______ _____ _____    ______ ____
ROOT
ATOM      1  C13 WFM A 701      24.498   6.660   5.011  0.00  0.00    +0.000 C 
ATOM      2  C21 WFM A 701      25.913   8.633   5.026  0.00  0.00    +0.000 C 
ATOM      3  C3  WFM A 701      25.092   5.404   5.653  0.00  0.00    +0.000 C 
ATOM      4  C2  WFM A 701      26.565   5.423   5.262  0.00  0.00    +0.000 C 
ATOM      5  C1  WFM A 701      26.646   6.338   4.032  0.00  0.00    +0.000 C 
ATOM      6  O2  WFM A 701      24.029   7.602   5.993  0.00  0.00    +0.000 OA
ATOM      7  C14 WFM A 701      24.574   8.887   5.725  0.00  0.00    +0.000 C 
ATOM      8  O3  WFM A 701      26.379   9.739   4.264  0.00  0.00    +0.000 OA
ATOM      9  C   WFM A 701      25.552   7.396   4.184  0.00  0.00    +0.000 C 
ATOM     10  O   WFM A 701      25.068   7.680   2.866  0.00  0.00    +0.000 OA
ENDROOT
BRANCH   7  15
ATOM     11  N3  WFM A 701      23.482  11.651   6.463  0.00  0.00    +0.000 NA
ATOM     12  C15 WFM A 701      24.148  10.839   7.302  0.00  0.00    +0.000 C 
ATOM     13  C17 WFM A 701      24.001  12.366   9.133  0.00  0.00    +0.000 C 
ATOM     14  C20 WFM A 701      25.275   9.102   8.145  0.00  0.00    +0.000 C 
ATOM     15  N2  WFM A 701      24.669   9.602   6.998  0.00  0.00    +0.000 N 
ATOM     16  C19 WFM A 701      25.187  10.000   9.152  0.00  0.00    +0.000 C 
ATOM     17  C18 WFM A 701      24.491  11.139   8.632  0.00  0.00    +0.000 C 
ATOM     18  N5  WFM A 701      24.195  12.755  10.398  0.00  0.00    +0.000 NA
ATOM     19  N4  WFM A 701      23.300  13.180   8.310  0.00  0.00    +0.000 NA
ATOM     20  C16 WFM A 701      23.081  12.779   7.055  0.00  0.00    +0.000 C 
ENDBRANCH   7  15
BRANCH   3  21
ATOM     21  O1  WFM A 701      24.411   4.232   5.128  0.00  0.00    +0.000 OA
BRANCH  21  23
ATOM     22  N1  WFM A 701      28.063   1.108   5.715  0.00  0.00    +0.000 NA
ATOM     23  C4  WFM A 701      25.121   3.086   4.834  0.00  0.00    +0.000 C 
ATOM     24  C5  WFM A 701      24.518   2.291   3.859  0.00  0.00    +0.000 C 
ATOM     25  C6  WFM A 701      25.050   1.078   3.542  0.00  0.00    +0.000 C 
ATOM     26  C7  WFM A 701      26.287   0.665   4.097  0.00  0.00    +0.000 C 
ATOM     27  C8  WFM A 701      26.958  -0.503   3.705  0.00  0.00    +0.000 C 
ATOM     28  C10 WFM A 701      28.719  -0.004   5.282  0.00  0.00    +0.000 C 
ATOM     29 BR   WFM A 701      29.064  -2.375   3.669  0.00  0.00    +0.000 Br
ATOM     30  C9  WFM A 701      28.142  -0.835   4.283  0.00  0.00    +0.000 C 
ATOM     31  N   WFM A 701      29.892  -0.277   5.862  0.00  0.00    +0.000 NA
ATOM     32  C11 WFM A 701      26.898   1.477   5.084  0.00  0.00    +0.000 C 
ATOM     33  C12 WFM A 701      26.280   2.688   5.468  0.00  0.00    +0.000 C 
ENDBRANCH  21  23
ENDBRANCH   3  21
TORSDOF 3
ENDMDL
MODEL 2
REMARK VINA RESULT:       1.6      3.391      9.928
REMARK  Name = ligand_pdbs\WFM.pdb
REMARK  3 active torsions:
REMARK  status: ('A' for Active; 'I' for Inactive)
REMARK    1  A    between atoms: C4_3  and  O1_19
REMARK    2  A    between atoms: O1_19  and  C3_20
REMARK    3  A    between atoms: C14_24  and  N2_28
REMARK                            x       y       z     vdW  Elec       q    Type
REMARK                         _______ _______ _______ _____ _____    ______ ____
ROOT
ATOM      1  C13 WFM A 701      26.155   4.503   3.901  0.00  0.00    +0.000 C 
ATOM      2  C21 WFM A 701      25.163   2.391   4.571  0.00  0.00    +0.000 C 
ATOM      3  C3  WFM A 701      27.141   5.127   4.892  0.00  0.00    +0.000 C 
ATOM      4  C2  WFM A 701      26.548   4.839   6.268  0.00  0.00    +0.000 C 
ATOM      5  C1  WFM A 701      25.060   4.558   6.016  0.00  0.00    +0.000 C 
ATOM      6  O2  WFM A 701      26.742   3.420   3.159  0.00  0.00    +0.000 OA
ATOM      7  C14 WFM A 701      25.905   2.274   3.236  0.00  0.00    +0.000 C 
ATOM      8  O3  WFM A 701      23.962   1.633   4.627  0.00  0.00    +0.000 OA
ATOM      9  C   WFM A 701      24.949   3.914   4.633  0.00  0.00    +0.000 C 
ATOM     10  O   WFM A 701      23.721   4.378   4.060  0.00  0.00    +0.000 OA
ENDROOT
BRANCH   7  15
ATOM     11  N3  WFM A 701      28.306   1.437   4.943  0.00  0.00    +0.000 NA
ATOM     12  C15 WFM A 701      27.820   0.735   3.904  0.00  0.00    +0.000 C 
ATOM     13  C17 WFM A 701      29.438  -1.007   4.131  0.00  0.00    +0.000 C 
ATOM     14  C20 WFM A 701      26.585   0.092   2.155  0.00  0.00    +0.000 C 
ATOM     15  N2  WFM A 701      26.757   1.092   3.106  0.00  0.00    +0.000 N 
ATOM     16  C19 WFM A 701      27.528  -0.864   2.303  0.00  0.00    +0.000 C 
ATOM     17  C18 WFM A 701      28.354  -0.464   3.404  0.00  0.00    +0.000 C 
ATOM     18  N5  WFM A 701      30.007  -2.173   3.810  0.00  0.00    +0.000 NA
ATOM     19  N4  WFM A 701      29.919  -0.329   5.198  0.00  0.00    +0.000 NA
ATOM     20  C16 WFM A 701      29.332   0.823   5.537  0.00  0.00    +0.000 C 
ENDBRANCH   7  15
BRANCH   3  21
ATOM     21  O1  WFM A 701      27.237   6.554   4.636  0.00  0.00    +0.000 OA
BRANCH  21  23
ATOM     22  N1  WFM A 701      25.898   9.397   8.318  0.00  0.00    +0.000 NA
ATOM     23  C4  WFM A 701      26.391   7.436   5.276  0.00  0.00    +0.000 C 
ATOM     24  C5  WFM A 701      25.292   7.814   4.505  0.00  0.00    +0.000 C 
ATOM     25  C6  WFM A 701      24.427   8.761   4.967  0.00  0.00    +0.000 C 
ATOM     26  C7  WFM A 701      24.555   9.276   6.281  0.00  0.00    +0.000 C 
ATOM     27  C8  WFM A 701      23.619  10.142   6.865  0.00  0.00    +0.000 C 
ATOM     28  C10 WFM A 701      24.949  10.197   8.881  0.00  0.00    +0.000 C 
ATOM     29 BR   WFM A 701      22.480  11.696   8.922  0.00  0.00    +0.000 Br
ATOM     30  C9  WFM A 701      23.809  10.596   8.131  0.00  0.00    +0.000 C 
ATOM     31  N   WFM A 701      25.167  10.599  10.138  0.00  0.00    +0.000 NA
ATOM     32  C11 WFM A 701      25.671   8.887   7.062  0.00  0.00    +0.000 C 
ATOM     33  C12 WFM A 701      26.609   7.975   6.528  0.00  0.00    +0.000 C 
ENDBRANCH  21  23
ENDBRANCH   3  21
TORSDOF 3
ENDMDL
MODEL 3
REMARK VINA RESULT:       1.7      3.439     10.304
REMARK  Name = ligand_pdbs\WFM.pdb
REMARK  3 active torsions:
REMARK  status: ('A' for Active; 'I' for Inactive)
REMARK    1  A    between atoms: C4_3  and  O1_19
REMARK    2  A    between atoms: O1_19  and  C3_20
REMARK    3  A    between atoms: C14_24  and  N2_28
REMARK                            x       y       z     vdW  Elec       q    Type
REMARK                         _______ _______ _______ _____ _____    ______ ____
ROOT
ATOM      1  C13 WFM A 701      26.046   4.317   3.855  0.00  0.00    +0.000 C 
ATOM      2  C21 WFM A 701      25.687   2.113   4.807  0.00  0.00    +0.000 C 
ATOM      3  C3  WFM A 701      26.744   5.334   4.761  0.00  0.00    +0.000 C 
ATOM      4  C2  WFM A 701      26.184   5.067   6.153  0.00  0.00    +0.000 C 
ATOM      5  C1  WFM A 701      24.863   4.320   5.922  0.00  0.00    +0.000 C 
ATOM      6  O2  WFM A 701      26.970   3.372   3.285  0.00  0.00    +0.000 OA
ATOM      7  C14 WFM A 701      26.506   2.048   3.514  0.00  0.00    +0.000 C 
ATOM      8  O3  WFM A 701      24.762   1.042   4.952  0.00  0.00    +0.000 OA
ATOM      9  C   WFM A 701      25.028   3.495   4.645  0.00  0.00    +0.000 C 
ATOM     10  O   WFM A 701      23.753   3.486   3.992  0.00  0.00    +0.000 OA
ENDROOT
BRANCH   7  15
ATOM     11  N3  WFM A 701      26.613  -1.004   3.743  0.00  0.00    +0.000 NA
ATOM     12  C15 WFM A 701      27.689  -0.202   3.653  0.00  0.00    +0.000 C 
ATOM     13  C17 WFM A 701      29.236  -2.019   3.739  0.00  0.00    +0.000 C 
ATOM     14  C20 WFM A 701      28.995   1.605   3.490  0.00  0.00    +0.000 C 
ATOM     15  N2  WFM A 701      27.676   1.171   3.569  0.00  0.00    +0.000 N 
ATOM     16  C19 WFM A 701      29.840   0.552   3.561  0.00  0.00    +0.000 C 
ATOM     17  C18 WFM A 701      29.029  -0.622   3.693  0.00  0.00    +0.000 C 
ATOM     18  N5  WFM A 701      30.456  -2.566   3.720  0.00  0.00    +0.000 NA
ATOM     19  N4  WFM A 701      28.163  -2.841   3.799  0.00  0.00    +0.000 NA
ATOM     20  C16 WFM A 701      26.943  -2.296   3.789  0.00  0.00    +0.000 C 
ENDBRANCH   7  15
BRANCH   3  21
ATOM     21  O1  WFM A 701      26.428   6.677   4.303  0.00  0.00    +0.000 OA
BRANCH  21  23
ATOM     22  N1  WFM A 701      25.913   9.507   8.196  0.00  0.00    +0.000 NA
ATOM     23  C4  WFM A 701      25.736   7.548   5.119  0.00  0.00    +0.000 C 
ATOM     24  C5  WFM A 701      24.485   7.907   4.617  0.00  0.00    +0.000 C 
ATOM     25  C6  WFM A 701      23.733   8.841   5.263  0.00  0.00    +0.000 C 
ATOM     26  C7  WFM A 701      24.146   9.361   6.515  0.00  0.00    +0.000 C 
ATOM     27  C8  WFM A 701      23.353  10.214   7.297  0.00  0.00    +0.000 C 
ATOM     28  C10 WFM A 701      25.103  10.293   8.960  0.00  0.00    +0.000 C 
ATOM     29 BR   WFM A 701      22.685  11.755   9.560  0.00  0.00    +0.000 Br
ATOM     30  C9  WFM A 701      23.818  10.673   8.488  0.00  0.00    +0.000 C 
ATOM     31  N   WFM A 701      25.594  10.701  10.136  0.00  0.00    +0.000 NA
ATOM     32  C11 WFM A 701      25.416   8.991   7.023  0.00  0.00    +0.000 C 
ATOM     33  C12 WFM A 701      26.223   8.092   6.290  0.00  0.00    +0.000 C 
ENDBRANCH  21  23
ENDBRANCH   3  21
TORSDOF 3
ENDMDL
