MODEL 1
REMARK VINA RESULT:      -1.2      0.000      0.000
REMARK  Name = ligand_pdbs\WFS.pdb
REMARK  3 active torsions:
REMARK  status: ('A' for Active; 'I' for Inactive)
REMARK    1  A    between atoms: C4_3  and  O_20
REMARK    2  A    between atoms: C5_4  and  O_20
REMARK    3  A    between atoms: C14_24  and  N2_29
REMARK                            x       y       z     vdW  Elec       q    Type
REMARK                         _______ _______ _______ _____ _____    ______ ____
ROOT
ATOM      1  C4  WFS A 706      25.185   7.576   5.812  0.00  0.00    +0.000 C 
ATOM      2  C15 WFS A 706      26.277   4.937   3.946  0.00  0.00    +0.000 C 
ATOM      3  C   WFS A 706      24.015   6.703   5.382  0.00  0.00    +0.000 C 
ATOM      4  C3  WFS A 706      26.300   7.188   4.842  0.00  0.00    +0.000 C 
ATOM      5  O1  WFS A 706      27.266   6.367   5.520  0.00  0.00    +0.000 OA
ATOM      6  C14 WFS A 706      27.584   5.291   4.655  0.00  0.00    +0.000 C 
ATOM      7  O2  WFS A 706      26.454   4.166   2.765  0.00  0.00    +0.000 OA
ATOM      8  C2  WFS A 706      25.724   6.347   3.689  0.00  0.00    +0.000 C 
ATOM      9  O3  WFS A 706      26.036   6.865   2.396  0.00  0.00    +0.000 OA
ATOM     10  C1  WFS A 706      24.216   6.534   3.874  0.00  0.00    +0.000 C 
ENDROOT
BRANCH   6  16
ATOM     11  N3  WFS A 706      29.477   0.487   4.585  0.00  0.00    +0.000 NA
ATOM     12  C17 WFS A 706      29.138   2.298   6.096  0.00  0.00    +0.000 C 
ATOM     13  C20 WFS A 706      29.605   0.999   5.820  0.00  0.00    +0.000 C 
ATOM     14  C21 WFS A 706      28.868   1.241   3.662  0.00  0.00    +0.000 C 
ATOM     15  C22 WFS A 706      30.257   0.131   6.854  0.00  0.00    +0.000 C 
ATOM     16  N2  WFS A 706      28.158   4.220   5.462  0.00  0.00    +0.000 N 
ATOM     17  C19 WFS A 706      28.520   4.331   6.799  0.00  0.00    +0.000 C 
ATOM     18  C18 WFS A 706      29.117   3.193   7.217  0.00  0.00    +0.000 C 
ATOM     19  N4  WFS A 706      28.353   2.469   3.792  0.00  0.00    +0.000 NA
ATOM     20  C16 WFS A 706      28.529   2.968   5.026  0.00  0.00    +0.000 C 
ENDBRANCH   6  16
BRANCH   1  21
ATOM     21  O   WFS A 706      24.876   8.972   5.584  0.00  0.00    +0.000 OA
BRANCH  21  23
ATOM     22  N1  WFS A 706      23.784  10.232  12.492  0.00  0.00    +0.000 NA
ATOM     23  C5  WFS A 706      24.604   9.802   6.652  0.00  0.00    +0.000 C 
ATOM     24  C6  WFS A 706      24.218  11.090   6.297  0.00  0.00    +0.000 C 
ATOM     25  C7  WFS A 706      23.944  12.013   7.261  0.00  0.00    +0.000 C 
ATOM     26  C8  WFS A 706      24.000  11.665   8.631  0.00  0.00    +0.000 C 
ATOM     27  C10 WFS A 706      24.709   9.423   7.973  0.00  0.00    +0.000 C 
ATOM     28  C13 WFS A 706      23.535  12.504   9.654  0.00  0.00    +0.000 C 
ATOM     29 BR   WFS A 706      22.636  13.155  12.243  0.00  0.00    +0.000 Br
ATOM     30  C12 WFS A 706      23.435  12.038  10.928  0.00  0.00    +0.000 C 
ATOM     31  C11 WFS A 706      23.873  10.721  11.248  0.00  0.00    +0.000 C 
ATOM     32  N   WFS A 706      24.365   9.916  10.288  0.00  0.00    +0.000 NA
ATOM     33  C9  WFS A 706      24.393  10.356   8.988  0.00  0.00    +0.000 C 
ENDBRANCH  21  23
ENDBRANCH   1  21
TORSDOF 3
ENDMDL
MODEL 2
REMARK VINA RESULT:      -0.2      3.921      9.841
REMARK  Name = ligand_pdbs\WFS.pdb
REMARK  3 active torsions:
REMARK  status: ('A' for Active; 'I' for Inactive)
REMARK    1  A    between atoms: C4_3  and  O_20
REMARK    2  A    between atoms: C5_4  and  O_20
REMARK    3  A    between atoms: C14_24  and  N2_29
REMARK                            x       y       z     vdW  Elec       q    Type
REMARK                         _______ _______ _______ _____ _____    ______ ____
ROOT
ATOM      1  C4  WFS A 706      24.903   5.317   5.508  0.00  0.00    +0.000 C 
ATOM      2  C15 WFS A 706      25.918   8.540   5.036  0.00  0.00    +0.000 C 
ATOM      3  C   WFS A 706      26.406   5.377   5.277  0.00  0.00    +0.000 C 
ATOM      4  C3  WFS A 706      24.400   6.652   4.961  0.00  0.00    +0.000 C 
ATOM      5  O1  WFS A 706      24.064   7.525   6.052  0.00  0.00    +0.000 OA
ATOM      6  C14 WFS A 706      24.591   8.805   5.746  0.00  0.00    +0.000 C 
ATOM      7  O2  WFS A 706      26.409   9.652   4.301  0.00  0.00    +0.000 OA
ATOM      8  C2  WFS A 706      25.516   7.345   4.159  0.00  0.00    +0.000 C 
ATOM      9  O3  WFS A 706      25.125   7.704   2.834  0.00  0.00    +0.000 OA
ATOM     10  C1  WFS A 706      26.551   6.226   4.012  0.00  0.00    +0.000 C 
ENDROOT
BRANCH   6  16
ATOM     11  N3  WFS A 706      23.273  13.163   8.181  0.00  0.00    +0.000 NA
ATOM     12  C17 WFS A 706      24.412  11.111   8.591  0.00  0.00    +0.000 C 
ATOM     13  C20 WFS A 706      23.929  12.358   9.033  0.00  0.00    +0.000 C 
ATOM     14  C21 WFS A 706      23.136  12.748   6.916  0.00  0.00    +0.000 C 
ATOM     15  C22 WFS A 706      24.108  12.850  10.437  0.00  0.00    +0.000 C 
ATOM     16  N2  WFS A 706      24.696   9.558   6.991  0.00  0.00    +0.000 N 
ATOM     17  C19 WFS A 706      25.250   9.079   8.172  0.00  0.00    +0.000 C 
ATOM     18  C18 WFS A 706      25.097   9.986   9.161  0.00  0.00    +0.000 C 
ATOM     19  N4  WFS A 706      23.566  11.610   6.358  0.00  0.00    +0.000 NA
ATOM     20  C16 WFS A 706      24.185  10.811   7.241  0.00  0.00    +0.000 C 
ENDBRANCH   6  16
BRANCH   1  21
ATOM     21  O   WFS A 706      24.315   4.268   4.701  0.00  0.00    +0.000 OA
BRANCH  21  23
ATOM     22  N1  WFS A 706      29.704  -0.194   5.946  0.00  0.00    +0.000 NA
ATOM     23  C5  WFS A 706      24.971   3.063   4.550  0.00  0.00    +0.000 C 
ATOM     24  C6  WFS A 706      24.434   2.233   3.572  0.00  0.00    +0.000 C 
ATOM     25  C7  WFS A 706      24.977   1.005   3.344  0.00  0.00    +0.000 C 
ATOM     26  C8  WFS A 706      26.119   0.575   4.058  0.00  0.00    +0.000 C 
ATOM     27  C10 WFS A 706      26.060   2.677   5.300  0.00  0.00    +0.000 C 
ATOM     28  C13 WFS A 706      26.840  -0.582   3.727  0.00  0.00    +0.000 C 
ATOM     29 BR   WFS A 706      29.055  -2.321   3.715  0.00  0.00    +0.000 Br
ATOM     30  C12 WFS A 706      28.035  -0.836   4.324  0.00  0.00    +0.000 C 
ATOM     31  C11 WFS A 706      28.529   0.028   5.343  0.00  0.00    +0.000 C 
ATOM     32  N   WFS A 706      27.829   1.119   5.707  0.00  0.00    +0.000 NA
ATOM     33  C9  WFS A 706      26.662   1.420   5.051  0.00  0.00    +0.000 C 
ENDBRANCH  21  23
ENDBRANCH   1  21
TORSDOF 3
ENDMDL
