MODEL 1
REMARK VINA RESULT:      -1.6      0.000      0.000
REMARK  Name = ligand_pdbs\WFV.pdb
REMARK  3 active torsions:
REMARK  status: ('A' for Active; 'I' for Inactive)
REMARK    1  A    between atoms: C13_9  and  C14_23
REMARK    2  A    between atoms: C15_10  and  C14_23
REMARK    3  A    between atoms: C3_29  and  N_32
REMARK                            x       y       z     vdW  Elec       q    Type
REMARK                         _______ _______ _______ _____ _____    ______ ____
ROOT
ATOM      1  C4  WFV A 705      25.714   4.114   6.167  0.00  0.00    +0.000 C 
ATOM      2  C13 WFV A 705      23.606   5.001   4.551  0.00  0.00    +0.000 C 
ATOM      3  C12 WFV A 705      24.259   5.433   3.253  0.00  0.00    +0.000 C 
ATOM      4  C11 WFV A 705      25.141   6.602   3.651  0.00  0.00    +0.000 C 
ATOM      5  C1  WFV A 705      25.677   6.284   5.057  0.00  0.00    +0.000 C 
ATOM      6  O1  WFV A 705      25.539   7.473   5.840  0.00  0.00    +0.000 OA
ATOM      7  C   WFV A 705      24.715   5.181   5.614  0.00  0.00    +0.000 C 
ATOM      8  C3  WFV A 705      27.061   4.801   6.340  0.00  0.00    +0.000 C 
ATOM      9  C2  WFV A 705      27.105   5.712   5.121  0.00  0.00    +0.000 C 
ATOM     10  O   WFV A 705      28.142   6.681   5.210  0.00  0.00    +0.000 OA
ENDROOT
BRANCH   8  18
ATOM     11  N1  WFV A 705      29.717   1.142   3.831  0.00  0.00    +0.000 NA
ATOM     12  N3  WFV A 705      31.391   0.639   5.341  0.00  0.00    +0.000 NA
ATOM     13  C5  WFV A 705      28.581   2.983   5.420  0.00  0.00    +0.000 C 
ATOM     14  C6  WFV A 705      29.720   2.313   5.912  0.00  0.00    +0.000 C 
ATOM     15  C7  WFV A 705      30.004   2.798   7.198  0.00  0.00    +0.000 C 
ATOM     16  C8  WFV A 705      29.056   3.726   7.469  0.00  0.00    +0.000 C 
ATOM     17  C10 WFV A 705      28.634   1.861   3.503  0.00  0.00    +0.000 C 
ATOM     18  N   WFV A 705      28.189   3.859   6.406  0.00  0.00    +0.000 N 
ATOM     19  F   WFV A 705      31.024   2.449   8.003  0.00  0.00    +0.000 F 
ATOM     20  N2  WFV A 705      27.999   2.796   4.223  0.00  0.00    +0.000 NA
ATOM     21  C9  WFV A 705      30.294   1.346   5.042  0.00  0.00    +0.000 C 
ENDBRANCH   8  18
BRANCH   2  22
ATOM     22  C14 WFV A 705      22.973   3.599   4.491  0.00  0.00    +0.000 C 
BRANCH  22  23
ATOM     23  C15 WFV A 705      23.924   2.509   4.050  0.00  0.00    +0.000 C 
ATOM     24  C17 WFV A 705      24.891   1.215   2.279  0.00  0.00    +0.000 C 
ATOM     25  C20 WFV A 705      24.533   1.676   4.974  0.00  0.00    +0.000 C 
ATOM     26  C21 WFV A 705      26.914  -1.045   5.135  0.00  0.00    +0.000 C 
ATOM     27  C22 WFV A 705      27.162  -1.289   3.754  0.00  0.00    +0.000 C 
ATOM     28  F2  WFV A 705      25.217   1.101   0.964  0.00  0.00    +0.000 F 
ATOM     29  C16 WFV A 705      24.237   2.351   2.691  0.00  0.00    +0.000 C 
ATOM     30  C18 WFV A 705      25.619   0.424   3.192  0.00  0.00    +0.000 C 
ATOM     31  C23 WFV A 705      26.528  -0.583   2.792  0.00  0.00    +0.000 C 
ATOM     32  F1  WFV A 705      28.062  -2.241   3.416  0.00  0.00    +0.000 F 
ATOM     33  N5  WFV A 705      27.542  -1.760   6.074  0.00  0.00    +0.000 NA
ATOM     34  N4  WFV A 705      26.044  -0.092   5.529  0.00  0.00    +0.000 NA
ATOM     35  C19 WFV A 705      25.408   0.642   4.566  0.00  0.00    +0.000 C 
ENDBRANCH  22  23
ENDBRANCH   2  22
TORSDOF 3
ENDMDL
MODEL 2
REMARK VINA RESULT:      -1.6      3.129      7.064
REMARK  Name = ligand_pdbs\WFV.pdb
REMARK  3 active torsions:
REMARK  status: ('A' for Active; 'I' for Inactive)
REMARK    1  A    between atoms: C13_9  and  C14_23
REMARK    2  A    between atoms: C15_10  and  C14_23
REMARK    3  A    between atoms: C3_29  and  N_32
REMARK                            x       y       z     vdW  Elec       q    Type
REMARK                         _______ _______ _______ _____ _____    ______ ____
ROOT
ATOM      1  C4  WFV A 705      27.554   0.178   5.653  0.00  0.00    +0.000 C 
ATOM      2  C13 WFV A 705      30.006  -1.059   5.105  0.00  0.00    +0.000 C 
ATOM      3  C12 WFV A 705      30.047  -1.202   3.596  0.00  0.00    +0.000 C 
ATOM      4  C11 WFV A 705      28.902  -2.145   3.279  0.00  0.00    +0.000 C 
ATOM      5  C1  WFV A 705      27.785  -1.828   4.288  0.00  0.00    +0.000 C 
ATOM      6  O1  WFV A 705      27.298  -3.078   4.784  0.00  0.00    +0.000 OA
ATOM      7  C   WFV A 705      28.497  -1.051   5.446  0.00  0.00    +0.000 C 
ATOM      8  C3  WFV A 705      26.215  -0.165   5.018  0.00  0.00    +0.000 C 
ATOM      9  C2  WFV A 705      26.647  -0.927   3.772  0.00  0.00    +0.000 C 
ATOM     10  O   WFV A 705      25.564  -1.612   3.157  0.00  0.00    +0.000 OA
ENDROOT
BRANCH   8  18
ATOM     11  N1  WFV A 705      24.718   4.507   6.651  0.00  0.00    +0.000 NA
ATOM     12  N3  WFV A 705      23.369   5.216   4.916  0.00  0.00    +0.000 NA
ATOM     13  C5  WFV A 705      25.271   2.145   5.503  0.00  0.00    +0.000 C 
ATOM     14  C6  WFV A 705      24.410   3.019   4.809  0.00  0.00    +0.000 C 
ATOM     15  C7  WFV A 705      24.022   2.405   3.607  0.00  0.00    +0.000 C 
ATOM     16  C8  WFV A 705      24.628   1.195   3.590  0.00  0.00    +0.000 C 
ATOM     17  C10 WFV A 705      25.518   3.573   7.186  0.00  0.00    +0.000 C 
ATOM     18  N   WFV A 705      25.392   1.018   4.722  0.00  0.00    +0.000 N 
ATOM     19  F   WFV A 705      23.235   2.913   2.641  0.00  0.00    +0.000 F 
ATOM     20  N2  WFV A 705      25.852   2.373   6.693  0.00  0.00    +0.000 NA
ATOM     21  C9  WFV A 705      24.142   4.261   5.447  0.00  0.00    +0.000 C 
ENDBRANCH   8  18
BRANCH   2  22
ATOM     22  C14 WFV A 705      30.808   0.141   5.638  0.00  0.00    +0.000 C 
BRANCH  22  23
ATOM     23  C15 WFV A 705      30.055   1.452   5.604  0.00  0.00    +0.000 C 
ATOM     24  C17 WFV A 705      29.245   3.390   6.759  0.00  0.00    +0.000 C 
ATOM     25  C20 WFV A 705      29.321   1.826   4.490  0.00  0.00    +0.000 C 
ATOM     26  C21 WFV A 705      27.316   4.576   3.262  0.00  0.00    +0.000 C 
ATOM     27  C22 WFV A 705      27.287   5.437   4.397  0.00  0.00    +0.000 C 
ATOM     28  F2  WFV A 705      29.354   4.255   7.804  0.00  0.00    +0.000 F 
ATOM     29  C16 WFV A 705      30.123   2.335   6.694  0.00  0.00    +0.000 C 
ATOM     30  C18 WFV A 705      28.584   3.860   5.605  0.00  0.00    +0.000 C 
ATOM     31  C23 WFV A 705      27.896   5.094   5.553  0.00  0.00    +0.000 C 
ATOM     32  F1  WFV A 705      26.643   6.622   4.295  0.00  0.00    +0.000 F 
ATOM     33  N5  WFV A 705      26.699   4.927   2.128  0.00  0.00    +0.000 NA
ATOM     34  N4  WFV A 705      27.964   3.394   3.301  0.00  0.00    +0.000 NA
ATOM     35  C19 WFV A 705      28.600   3.041   4.460  0.00  0.00    +0.000 C 
ENDBRANCH  22  23
ENDBRANCH   2  22
TORSDOF 3
ENDMDL
MODEL 3
REMARK VINA RESULT:      -0.2      2.700      5.407
REMARK  Name = ligand_pdbs\WFV.pdb
REMARK  3 active torsions:
REMARK  status: ('A' for Active; 'I' for Inactive)
REMARK    1  A    between atoms: C13_9  and  C14_23
REMARK    2  A    between atoms: C15_10  and  C14_23
REMARK    3  A    between atoms: C3_29  and  N_32
REMARK                            x       y       z     vdW  Elec       q    Type
REMARK                         _______ _______ _______ _____ _____    ______ ____
ROOT
ATOM      1  C4  WFV A 705      29.077   2.009   4.353  0.00  0.00    +0.000 C 
ATOM      2  C13 WFV A 705      29.248  -0.718   4.968  0.00  0.00    +0.000 C 
ATOM      3  C12 WFV A 705      28.773  -0.829   6.403  0.00  0.00    +0.000 C 
ATOM      4  C11 WFV A 705      29.803  -0.048   7.197  0.00  0.00    +0.000 C 
ATOM      5  C1  WFV A 705      30.237   1.130   6.308  0.00  0.00    +0.000 C 
ATOM      6  O1  WFV A 705      31.663   1.205   6.374  0.00  0.00    +0.000 OA
ATOM      7  C   WFV A 705      29.803   0.722   4.860  0.00  0.00    +0.000 C 
ATOM      8  C3  WFV A 705      29.512   3.159   5.248  0.00  0.00    +0.000 C 
ATOM      9  C2  WFV A 705      29.571   2.486   6.613  0.00  0.00    +0.000 C 
ATOM     10  O   WFV A 705      30.241   3.285   7.579  0.00  0.00    +0.000 OA
ENDROOT
BRANCH   8  18
ATOM     11  N1  WFV A 705      25.995   5.705   2.442  0.00  0.00    +0.000 NA
ATOM     12  N3  WFV A 705      25.353   7.390   3.885  0.00  0.00    +0.000 NA
ATOM     13  C5  WFV A 705      27.762   4.649   4.163  0.00  0.00    +0.000 C 
ATOM     14  C6  WFV A 705      27.054   5.795   4.580  0.00  0.00    +0.000 C 
ATOM     15  C7  WFV A 705      27.470   6.132   5.877  0.00  0.00    +0.000 C 
ATOM     16  C8  WFV A 705      28.407   5.218   6.222  0.00  0.00    +0.000 C 
ATOM     17  C10 WFV A 705      26.740   4.619   2.191  0.00  0.00    +0.000 C 
ATOM     18  N   WFV A 705      28.596   4.309   5.204  0.00  0.00    +0.000 N 
ATOM     19  F   WFV A 705      27.020   7.137   6.651  0.00  0.00    +0.000 F 
ATOM     20  N2  WFV A 705      27.643   4.022   2.981  0.00  0.00    +0.000 NA
ATOM     21  C9  WFV A 705      26.126   6.325   3.642  0.00  0.00    +0.000 C 
ENDBRANCH   8  18
BRANCH   2  22
ATOM     22  C14 WFV A 705      28.175  -1.088   3.928  0.00  0.00    +0.000 C 
BRANCH  22  23
ATOM     23  C15 WFV A 705      27.050  -0.085   3.815  0.00  0.00    +0.000 C 
ATOM     24  C17 WFV A 705      25.387   0.998   2.471  0.00  0.00    +0.000 C 
ATOM     25  C20 WFV A 705      26.780   0.804   4.842  0.00  0.00    +0.000 C 
ATOM     26  C21 WFV A 705      24.448   3.427   5.723  0.00  0.00    +0.000 C 
ATOM     27  C22 WFV A 705      23.673   3.532   4.532  0.00  0.00    +0.000 C 
ATOM     28  F2  WFV A 705      24.574   0.977   1.380  0.00  0.00    +0.000 F 
ATOM     29  C16 WFV A 705      26.230  -0.067   2.675  0.00  0.00    +0.000 C 
ATOM     30  C18 WFV A 705      25.006   1.840   3.537  0.00  0.00    +0.000 C 
ATOM     31  C23 WFV A 705      23.941   2.766   3.452  0.00  0.00    +0.000 C 
ATOM     32  F1  WFV A 705      22.644   4.410   4.504  0.00  0.00    +0.000 F 
ATOM     33  N5  WFV A 705      24.176   4.200   6.780  0.00  0.00    +0.000 NA
ATOM     34  N4  WFV A 705      25.470   2.551   5.814  0.00  0.00    +0.000 NA
ATOM     35  C19 WFV A 705      25.742   1.758   4.734  0.00  0.00    +0.000 C 
ENDBRANCH  22  23
ENDBRANCH   2  22
TORSDOF 3
ENDMDL
MODEL 4
REMARK VINA RESULT:       0.9      2.707      5.469
REMARK  Name = ligand_pdbs\WFV.pdb
REMARK  3 active torsions:
REMARK  status: ('A' for Active; 'I' for Inactive)
REMARK    1  A    between atoms: C13_9  and  C14_23
REMARK    2  A    between atoms: C15_10  and  C14_23
REMARK    3  A    between atoms: C3_29  and  N_32
REMARK                            x       y       z     vdW  Elec       q    Type
REMARK                         _______ _______ _______ _____ _____    ______ ____
ROOT
ATOM      1  C4  WFV A 705      27.887   0.817   3.474  0.00  0.00    +0.000 C 
ATOM      2  C13 WFV A 705      27.589  -1.967   3.413  0.00  0.00    +0.000 C 
ATOM      3  C12 WFV A 705      28.146  -2.452   4.736  0.00  0.00    +0.000 C 
ATOM      4  C11 WFV A 705      29.617  -2.082   4.680  0.00  0.00    +0.000 C 
ATOM      5  C1  WFV A 705      29.701  -0.750   3.914  0.00  0.00    +0.000 C 
ATOM      6  O1  WFV A 705      30.770  -0.873   2.973  0.00  0.00    +0.000 OA
ATOM      7  C   WFV A 705      28.341  -0.641   3.146  0.00  0.00    +0.000 C 
ATOM      8  C3  WFV A 705      29.114   1.577   3.955  0.00  0.00    +0.000 C 
ATOM      9  C2  WFV A 705      29.834   0.517   4.779  0.00  0.00    +0.000 C 
ATOM     10  O   WFV A 705      31.166   0.896   5.097  0.00  0.00    +0.000 OA
ENDROOT
BRANCH   8  18
ATOM     11  N1  WFV A 705      26.716   6.157   3.873  0.00  0.00    +0.000 NA
ATOM     12  N3  WFV A 705      27.045   6.913   6.030  0.00  0.00    +0.000 NA
ATOM     13  C5  WFV A 705      28.055   3.866   4.273  0.00  0.00    +0.000 C 
ATOM     14  C6  WFV A 705      27.966   4.765   5.356  0.00  0.00    +0.000 C 
ATOM     15  C7  WFV A 705      28.644   4.212   6.453  0.00  0.00    +0.000 C 
ATOM     16  C8  WFV A 705      29.132   3.021   6.035  0.00  0.00    +0.000 C 
ATOM     17  C10 WFV A 705      26.884   5.206   2.943  0.00  0.00    +0.000 C 
ATOM     18  N   WFV A 705      28.784   2.788   4.722  0.00  0.00    +0.000 N 
ATOM     19  F   WFV A 705      28.769   4.729   7.690  0.00  0.00    +0.000 F 
ATOM     20  N2  WFV A 705      27.532   4.038   3.047  0.00  0.00    +0.000 NA
ATOM     21  C9  WFV A 705      27.248   5.966   5.107  0.00  0.00    +0.000 C 
ENDBRANCH   8  18
BRANCH   2  22
ATOM     22  C14 WFV A 705      26.053  -1.869   3.383  0.00  0.00    +0.000 C 
BRANCH  22  23
ATOM     23  C15 WFV A 705      25.517  -0.476   3.622  0.00  0.00    +0.000 C 
ATOM     24  C17 WFV A 705      24.436   1.486   2.771  0.00  0.00    +0.000 C 
ATOM     25  C20 WFV A 705      25.782   0.198   4.803  0.00  0.00    +0.000 C 
ATOM     26  C21 WFV A 705      25.020   3.321   6.466  0.00  0.00    +0.000 C 
ATOM     27  C22 WFV A 705      24.281   4.007   5.459  0.00  0.00    +0.000 C 
ATOM     28  F2  WFV A 705      23.614   2.057   1.850  0.00  0.00    +0.000 F 
ATOM     29  C16 WFV A 705      24.703   0.143   2.661  0.00  0.00    +0.000 C 
ATOM     30  C18 WFV A 705      24.583   2.159   4.002  0.00  0.00    +0.000 C 
ATOM     31  C23 WFV A 705      24.067   3.453   4.246  0.00  0.00    +0.000 C 
ATOM     32  F1  WFV A 705      23.779   5.230   5.745  0.00  0.00    +0.000 F 
ATOM     33  N5  WFV A 705      25.231   3.888   7.658  0.00  0.00    +0.000 NA
ATOM     34  N4  WFV A 705      25.523   2.089   6.243  0.00  0.00    +0.000 NA
ATOM     35  C19 WFV A 705      25.300   1.509   5.025  0.00  0.00    +0.000 C 
ENDBRANCH  22  23
ENDBRANCH   2  22
TORSDOF 3
ENDMDL
MODEL 5
REMARK VINA RESULT:       1.0      2.014      5.173
REMARK  Name = ligand_pdbs\WFV.pdb
REMARK  3 active torsions:
REMARK  status: ('A' for Active; 'I' for Inactive)
REMARK    1  A    between atoms: C13_9  and  C14_23
REMARK    2  A    between atoms: C15_10  and  C14_23
REMARK    3  A    between atoms: C3_29  and  N_32
REMARK                            x       y       z     vdW  Elec       q    Type
REMARK                         _______ _______ _______ _____ _____    ______ ____
ROOT
ATOM      1  C4  WFV A 705      26.219   3.350   3.266  0.00  0.00    +0.000 C 
ATOM      2  C13 WFV A 705      25.575   5.467   4.983  0.00  0.00    +0.000 C 
ATOM      3  C12 WFV A 705      25.025   4.808   6.232  0.00  0.00    +0.000 C 
ATOM      4  C11 WFV A 705      23.761   4.113   5.762  0.00  0.00    +0.000 C 
ATOM      5  C1  WFV A 705      24.044   3.616   4.333  0.00  0.00    +0.000 C 
ATOM      6  O1  WFV A 705      22.905   3.953   3.537  0.00  0.00    +0.000 OA
ATOM      7  C   WFV A 705      25.279   4.451   3.854  0.00  0.00    +0.000 C 
ATOM      8  C3  WFV A 705      25.366   2.118   3.003  0.00  0.00    +0.000 C 
ATOM      9  C2  WFV A 705      24.424   2.129   4.200  0.00  0.00    +0.000 C 
ATOM     10  O   WFV A 705      23.330   1.237   4.032  0.00  0.00    +0.000 OA
ENDROOT
BRANCH   8  18
ATOM     11  N1  WFV A 705      27.244  -1.987   5.525  0.00  0.00    +0.000 NA
ATOM     12  N3  WFV A 705      28.281  -3.163   3.829  0.00  0.00    +0.000 NA
ATOM     13  C5  WFV A 705      26.438  -0.002   3.908  0.00  0.00    +0.000 C 
ATOM     14  C6  WFV A 705      27.183  -1.049   3.329  0.00  0.00    +0.000 C 
ATOM     15  C7  WFV A 705      27.337  -0.786   1.959  0.00  0.00    +0.000 C 
ATOM     16  C8  WFV A 705      26.708   0.390   1.729  0.00  0.00    +0.000 C 
ATOM     17  C10 WFV A 705      26.528  -0.927   5.926  0.00  0.00    +0.000 C 
ATOM     18  N   WFV A 705      26.152   0.880   2.891  0.00  0.00    +0.000 N 
ATOM     19  F   WFV A 705      27.953  -1.550   1.038  0.00  0.00    +0.000 F 
ATOM     20  N2  WFV A 705      26.083   0.107   5.200  0.00  0.00    +0.000 NA
ATOM     21  C9  WFV A 705      27.592  -2.083   4.216  0.00  0.00    +0.000 C 
ENDBRANCH   8  18
BRANCH   2  22
ATOM     22  C14 WFV A 705      27.046   5.903   5.105  0.00  0.00    +0.000 C 
BRANCH  22  23
ATOM     23  C15 WFV A 705      27.974   4.817   5.600  0.00  0.00    +0.000 C 
ATOM     24  C17 WFV A 705      29.550   4.043   7.231  0.00  0.00    +0.000 C 
ATOM     25  C20 WFV A 705      28.269   3.717   4.812  0.00  0.00    +0.000 C 
ATOM     26  C21 WFV A 705      30.144   0.624   4.926  0.00  0.00    +0.000 C 
ATOM     27  C22 WFV A 705      30.793   0.730   6.190  0.00  0.00    +0.000 C 
ATOM     28  F2  WFV A 705      30.040   4.103   8.499  0.00  0.00    +0.000 F 
ATOM     29  C16 WFV A 705      28.522   4.888   6.891  0.00  0.00    +0.000 C 
ATOM     30  C18 WFV A 705      29.784   2.853   6.510  0.00  0.00    +0.000 C 
ATOM     31  C23 WFV A 705      30.632   1.820   6.972  0.00  0.00    +0.000 C 
ATOM     32  F1  WFV A 705      31.571  -0.295   6.607  0.00  0.00    +0.000 F 
ATOM     33  N5  WFV A 705      30.322  -0.458   4.161  0.00  0.00    +0.000 NA
ATOM     34  N4  WFV A 705      29.338   1.605   4.473  0.00  0.00    +0.000 NA
ATOM     35  C19 WFV A 705      29.152   2.707   5.261  0.00  0.00    +0.000 C 
ENDBRANCH  22  23
ENDBRANCH   2  22
TORSDOF 3
ENDMDL
MODEL 6
REMARK VINA RESULT:       1.4      2.230      4.875
REMARK  Name = ligand_pdbs\WFV.pdb
REMARK  3 active torsions:
REMARK  status: ('A' for Active; 'I' for Inactive)
REMARK    1  A    between atoms: C13_9  and  C14_23
REMARK    2  A    between atoms: C15_10  and  C14_23
REMARK    3  A    between atoms: C3_29  and  N_32
REMARK                            x       y       z     vdW  Elec       q    Type
REMARK                         _______ _______ _______ _____ _____    ______ ____
ROOT
ATOM      1  C4  WFV A 705      26.168   3.094   3.522  0.00  0.00    +0.000 C 
ATOM      2  C13 WFV A 705      25.671   5.714   4.377  0.00  0.00    +0.000 C 
ATOM      3  C12 WFV A 705      24.991   5.568   5.723  0.00  0.00    +0.000 C 
ATOM      4  C11 WFV A 705      23.684   4.864   5.406  0.00  0.00    +0.000 C 
ATOM      5  C1  WFV A 705      23.984   3.890   4.253  0.00  0.00    +0.000 C 
ATOM      6  O1  WFV A 705      22.930   4.033   3.297  0.00  0.00    +0.000 OA
ATOM      7  C   WFV A 705      25.325   4.405   3.629  0.00  0.00    +0.000 C 
ATOM      8  C3  WFV A 705      25.201   1.923   3.612  0.00  0.00    +0.000 C 
ATOM      9  C2  WFV A 705      24.207   2.420   4.653  0.00  0.00    +0.000 C 
ATOM     10  O   WFV A 705      23.033   1.620   4.700  0.00  0.00    +0.000 OA
ENDROOT
BRANCH   8  18
ATOM     11  N1  WFV A 705      28.302  -1.903   2.038  0.00  0.00    +0.000 NA
ATOM     12  N3  WFV A 705      28.461  -3.208   3.937  0.00  0.00    +0.000 NA
ATOM     13  C5  WFV A 705      26.673  -0.105   3.185  0.00  0.00    +0.000 C 
ATOM     14  C6  WFV A 705      27.089  -1.199   3.970  0.00  0.00    +0.000 C 
ATOM     15  C7  WFV A 705      26.513  -1.080   5.245  0.00  0.00    +0.000 C 
ATOM     16  C8  WFV A 705      25.768   0.050   5.218  0.00  0.00    +0.000 C 
ATOM     17  C10 WFV A 705      27.825  -0.812   1.421  0.00  0.00    +0.000 C 
ATOM     18  N   WFV A 705      25.854   0.659   3.984  0.00  0.00    +0.000 N 
ATOM     19  F   WFV A 705      26.681  -1.894   6.303  0.00  0.00    +0.000 F 
ATOM     20  N2  WFV A 705      27.012   0.136   1.906  0.00  0.00    +0.000 NA
ATOM     21  C9  WFV A 705      27.952  -2.130   3.329  0.00  0.00    +0.000 C 
ENDBRANCH   8  18
BRANCH   2  22
ATOM     22  C14 WFV A 705      27.173   6.040   4.471  0.00  0.00    +0.000 C 
BRANCH  22  23
ATOM     23  C15 WFV A 705      27.998   4.964   5.138  0.00  0.00    +0.000 C 
ATOM     24  C17 WFV A 705      29.324   4.246   7.001  0.00  0.00    +0.000 C 
ATOM     25  C20 WFV A 705      28.365   3.817   4.452  0.00  0.00    +0.000 C 
ATOM     26  C21 WFV A 705      30.125   0.698   4.970  0.00  0.00    +0.000 C 
ATOM     27  C22 WFV A 705      30.605   0.859   6.302  0.00  0.00    +0.000 C 
ATOM     28  F2  WFV A 705      29.645   4.364   8.318  0.00  0.00    +0.000 F 
ATOM     29  C16 WFV A 705      28.374   5.092   6.485  0.00  0.00    +0.000 C 
ATOM     30  C18 WFV A 705      29.619   3.016   6.378  0.00  0.00    +0.000 C 
ATOM     31  C23 WFV A 705      30.371   1.992   6.999  0.00  0.00    +0.000 C 
ATOM     32  F1  WFV A 705      31.294  -0.158   6.869  0.00  0.00    +0.000 F 
ATOM     33  N5  WFV A 705      30.374  -0.427   4.290  0.00  0.00    +0.000 NA
ATOM     34  N4  WFV A 705      29.412   1.670   4.365  0.00  0.00    +0.000 NA
ATOM     35  C19 WFV A 705      29.154   2.816   5.065  0.00  0.00    +0.000 C 
ENDBRANCH  22  23
ENDBRANCH   2  22
TORSDOF 3
ENDMDL
