MODEL 1
REMARK VINA RESULT:       0.3      0.000      0.000
REMARK  Name = ligand_pdbs\YFU.pdb
REMARK  6 active torsions:
REMARK  status: ('A' for Active; 'I' for Inactive)
REMARK    1  A    between atoms: O1_4  and  C5_14
REMARK    2  A    between atoms: N2_6  and  C16_25
REMARK    3  A    between atoms: N4_12  and  C29_37
REMARK    4  A    between atoms: C10_19  and  C11_20
REMARK    5  A    between atoms: C16_25  and  C17_26
REMARK    6  A    between atoms: C17_26  and  C18_27
REMARK                            x       y       z     vdW  Elec       q    Type
REMARK                         _______ _______ _______ _____ _____    ______ ____
ROOT
ATOM      1  N2  YFU A 703      24.565   7.411   4.545  0.00  0.00    +0.000 N 
ATOM      2  O3  YFU A 703      23.667   6.281   6.133  0.00  0.00    +0.000 OA
ATOM      3  N4  YFU A 703      26.895   6.173   4.454  0.00  0.00    +0.000 N 
ATOM      4  C11 YFU A 703      25.083   2.644   3.641  0.00  0.00    +0.000 A 
ATOM      5  C12 YFU A 703      23.677   2.968   4.112  0.00  0.00    +0.000 A 
ATOM      6  C13 YFU A 703      23.415   4.171   4.591  0.00  0.00    +0.000 A 
ATOM      7  C14 YFU A 703      24.512   5.211   4.699  0.00  0.00    +0.000 A 
ATOM      8  C15 YFU A 703      24.269   6.287   5.144  0.00  0.00    +0.000 C 
ATOM      9  C27 YFU A 703      25.119   7.598   3.652  0.00  0.00    +0.000 C 
ATOM     10  C28 YFU A 703      26.478   7.756   4.026  0.00  0.00    +0.000 C 
ATOM     11  C31 YFU A 703      25.704   4.910   4.318  0.00  0.00    +0.000 A 
ATOM     12  C32 YFU A 703      26.035   3.541   3.746  0.00  0.00    +0.000 A 
ENDROOT
BRANCH   4  23
ATOM     13  C1  YFU A 703      27.548   0.974   4.428  0.00  0.00    +0.000 C 
ATOM     14  N1  YFU A 703      26.567   0.509   3.471  0.00  0.00    +0.000 N 
ATOM     15  C2  YFU A 703      28.899   1.027   3.724  0.00  0.00    +0.000 C 
ATOM     16  O2  YFU A 703      24.671   0.803   2.301  0.00  0.00    +0.000 OA
ATOM     17  C3  YFU A 703      29.141  -0.260   2.970  0.00  0.00    +0.000 C 
ATOM     18  C4  YFU A 703      30.700  -0.850   2.648  0.00  0.00    +0.000 C 
ATOM     19  C5  YFU A 703      30.555  -1.576   3.859  0.00  0.00    +0.000 C 
ATOM     20  C7  YFU A 703      29.201  -1.388   4.231  0.00  0.00    +0.000 C 
ATOM     21  C8  YFU A 703      27.993  -0.521   2.018  0.00  0.00    +0.000 C 
ATOM     22  C9  YFU A 703      26.728  -0.761   2.843  0.00  0.00    +0.000 C 
ATOM     23  C10 YFU A 703      25.395   1.264   3.077  0.00  0.00    +0.000 C 
BRANCH  19  24
ATOM     24  O1  YFU A 703      30.829  -3.018   3.666  0.00  0.00    +0.000 OA
ATOM     25  C6  YFU A 703      29.624  -3.713   3.485  0.00  0.00    +0.000 C 
ENDBRANCH  19  24
ENDBRANCH   4  23
BRANCH   3  26
ATOM     26  C29 YFU A 703      28.244   5.895   4.866  0.00  0.00    +0.000 C 
ATOM     27  C30 YFU A 703      27.994   4.895   5.993  0.00  0.00    +0.000 C 
ENDBRANCH   3  26
BRANCH   1  28
ATOM     28  C16 YFU A 703      24.178   8.665   5.222  0.00  0.00    +0.000 C 
BRANCH  28  30
ATOM     29  O4  YFU A 703      25.910   8.487   6.706  0.00  0.00    +0.000 OA
ATOM     30  C17 YFU A 703      24.956   9.101   6.485  0.00  0.00    +0.000 C 
BRANCH  30  33
ATOM     31  C22 YFU A 703      23.126  12.895  11.381  0.00  0.00    +0.000 A 
ATOM     32  N3  YFU A 703      23.854  11.194   6.754  0.00  0.00    +0.000 NA
ATOM     33  C18 YFU A 703      24.719  10.215   7.375  0.00  0.00    +0.000 C 
ATOM     34  C19 YFU A 703      23.576  12.133   7.742  0.00  0.00    +0.000 C 
ATOM     35  C20 YFU A 703      23.476  11.938   9.131  0.00  0.00    +0.000 A 
ATOM     36  C21 YFU A 703      23.221  13.106  10.113  0.00  0.00    +0.000 A 
ATOM     37  C23 YFU A 703      23.275  11.525  11.891  0.00  0.00    +0.000 A 
ATOM     38  C24 YFU A 703      23.490  10.547  11.082  0.00  0.00    +0.000 A 
ATOM     39  C25 YFU A 703      23.593  10.802   9.565  0.00  0.00    +0.000 A 
ATOM     40  C26 YFU A 703      23.863   9.650   8.573  0.00  0.00    +0.000 C 
ENDBRANCH  30  33
ENDBRANCH  28  30
ENDBRANCH   1  28
TORSDOF 6
ENDMDL
MODEL 2
REMARK VINA RESULT:       1.1      1.834      3.043
REMARK  Name = ligand_pdbs\YFU.pdb
REMARK  6 active torsions:
REMARK  status: ('A' for Active; 'I' for Inactive)
REMARK    1  A    between atoms: O1_4  and  C5_14
REMARK    2  A    between atoms: N2_6  and  C16_25
REMARK    3  A    between atoms: N4_12  and  C29_37
REMARK    4  A    between atoms: C10_19  and  C11_20
REMARK    5  A    between atoms: C16_25  and  C17_26
REMARK    6  A    between atoms: C17_26  and  C18_27
REMARK                            x       y       z     vdW  Elec       q    Type
REMARK                         _______ _______ _______ _____ _____    ______ ____
ROOT
ATOM      1  N2  YFU A 703      25.592   7.543   5.490  0.00  0.00    +0.000 N 
ATOM      2  O3  YFU A 703      27.589   8.303   5.683  0.00  0.00    +0.000 OA
ATOM      3  N4  YFU A 703      26.066   5.646   3.716  0.00  0.00    +0.000 N 
ATOM      4  C11 YFU A 703      28.677   3.834   6.225  0.00  0.00    +0.000 A 
ATOM      5  C12 YFU A 703      28.969   4.990   7.163  0.00  0.00    +0.000 A 
ATOM      6  C13 YFU A 703      28.365   6.150   6.971  0.00  0.00    +0.000 A 
ATOM      7  C14 YFU A 703      27.411   6.336   5.808  0.00  0.00    +0.000 A 
ATOM      8  C15 YFU A 703      26.882   7.387   5.636  0.00  0.00    +0.000 C 
ATOM      9  C27 YFU A 703      24.810   6.821   5.410  0.00  0.00    +0.000 C 
ATOM     10  C28 YFU A 703      24.653   6.523   4.032  0.00  0.00    +0.000 C 
ATOM     11  C31 YFU A 703      27.195   5.351   5.008  0.00  0.00    +0.000 A 
ATOM     12  C32 YFU A 703      27.860   3.999   5.212  0.00  0.00    +0.000 A 
ENDROOT
BRANCH   4  23
ATOM     13  C1  YFU A 703      28.476   1.460   4.273  0.00  0.00    +0.000 C 
ATOM     14  N1  YFU A 703      29.239   1.395   5.501  0.00  0.00    +0.000 N 
ATOM     15  C2  YFU A 703      27.409   0.373   4.328  0.00  0.00    +0.000 C 
ATOM     16  O2  YFU A 703      29.993   2.335   7.397  0.00  0.00    +0.000 OA
ATOM     17  C3  YFU A 703      28.026  -0.937   4.756  0.00  0.00    +0.000 C 
ATOM     18  C4  YFU A 703      27.378  -2.441   4.308  0.00  0.00    +0.000 C 
ATOM     19  C5  YFU A 703      28.269  -2.371   3.205  0.00  0.00    +0.000 C 
ATOM     20  C7  YFU A 703      29.088  -1.248   3.475  0.00  0.00    +0.000 C 
ATOM     21  C8  YFU A 703      28.749  -0.759   6.074  0.00  0.00    +0.000 C 
ATOM     22  C9  YFU A 703      29.924   0.195   5.853  0.00  0.00    +0.000 C 
ATOM     23  C10 YFU A 703      29.359   2.490   6.443  0.00  0.00    +0.000 C 
BRANCH  19  24
ATOM     24  O1  YFU A 703      29.102  -3.590   3.099  0.00  0.00    +0.000 OA
ATOM     25  C6  YFU A 703      30.411  -3.312   3.521  0.00  0.00    +0.000 C 
ENDBRANCH  19  24
ENDBRANCH   4  23
BRANCH   3  26
ATOM     26  C29 YFU A 703      26.274   5.113   2.397  0.00  0.00    +0.000 C 
ATOM     27  C30 YFU A 703      26.088   3.622   2.664  0.00  0.00    +0.000 C 
ENDBRANCH   3  26
BRANCH   1  28
ATOM     28  C16 YFU A 703      25.090   8.919   5.303  0.00  0.00    +0.000 C 
BRANCH  28  30
ATOM     29  O4  YFU A 703      23.014   9.095   6.248  0.00  0.00    +0.000 OA
ATOM     30  C17 YFU A 703      24.094   9.495   6.336  0.00  0.00    +0.000 C 
BRANCH  30  33
ATOM     31  C22 YFU A 703      24.000  12.503  12.051  0.00  0.00    +0.000 A 
ATOM     32  N3  YFU A 703      23.918  11.733   7.128  0.00  0.00    +0.000 NA
ATOM     33  C18 YFU A 703      24.333  10.385   7.450  0.00  0.00    +0.000 C 
ATOM     34  C19 YFU A 703      24.051  12.461   8.306  0.00  0.00    +0.000 C 
ATOM     35  C20 YFU A 703      23.905  12.015   9.631  0.00  0.00    +0.000 A 
ATOM     36  C21 YFU A 703      24.151  12.939  10.847  0.00  0.00    +0.000 A 
ATOM     37  C23 YFU A 703      23.601  11.105  12.260  0.00  0.00    +0.000 A 
ATOM     38  C24 YFU A 703      23.397  10.327  11.255  0.00  0.00    +0.000 A 
ATOM     39  C25 YFU A 703      23.569  10.855   9.816  0.00  0.00    +0.000 A 
ATOM     40  C26 YFU A 703      23.342   9.940   8.593  0.00  0.00    +0.000 C 
ENDBRANCH  30  33
ENDBRANCH  28  30
ENDBRANCH   1  28
TORSDOF 6
ENDMDL
MODEL 3
REMARK VINA RESULT:       1.9      2.305     11.389
REMARK  Name = ligand_pdbs\YFU.pdb
REMARK  6 active torsions:
REMARK  status: ('A' for Active; 'I' for Inactive)
REMARK    1  A    between atoms: O1_4  and  C5_14
REMARK    2  A    between atoms: N2_6  and  C16_25
REMARK    3  A    between atoms: N4_12  and  C29_37
REMARK    4  A    between atoms: C10_19  and  C11_20
REMARK    5  A    between atoms: C16_25  and  C17_26
REMARK    6  A    between atoms: C17_26  and  C18_27
REMARK                            x       y       z     vdW  Elec       q    Type
REMARK                         _______ _______ _______ _____ _____    ______ ____
ROOT
ATOM      1  N2  YFU A 703      27.488   4.813   3.690  0.00  0.00    +0.000 N 
ATOM      2  O3  YFU A 703      28.348   5.033   5.643  0.00  0.00    +0.000 OA
ATOM      3  N4  YFU A 703      24.945   4.712   4.393  0.00  0.00    +0.000 N 
ATOM      4  C11 YFU A 703      25.181   8.382   6.089  0.00  0.00    +0.000 A 
ATOM      5  C12 YFU A 703      26.685   8.486   6.256  0.00  0.00    +0.000 A 
ATOM      6  C13 YFU A 703      27.454   7.494   5.844  0.00  0.00    +0.000 A 
ATOM      7  C14 YFU A 703      26.841   6.248   5.235  0.00  0.00    +0.000 A 
ATOM      8  C15 YFU A 703      27.540   5.355   4.879  0.00  0.00    +0.000 C 
ATOM      9  C27 YFU A 703      26.810   4.975   2.882  0.00  0.00    +0.000 C 
ATOM     10  C28 YFU A 703      25.736   4.062   3.045  0.00  0.00    +0.000 C 
ATOM     11  C31 YFU A 703      25.560   6.167   5.125  0.00  0.00    +0.000 A 
ATOM     12  C32 YFU A 703      24.649   7.298   5.573  0.00  0.00    +0.000 A 
ENDROOT
BRANCH   4  23
ATOM     13  C1  YFU A 703      25.557   9.909   8.737  0.00  0.00    +0.000 C 
ATOM     14  N1  YFU A 703      24.493  10.217   7.806  0.00  0.00    +0.000 N 
ATOM     15  C2  YFU A 703      24.917   9.522  10.066  0.00  0.00    +0.000 C 
ATOM     16  O2  YFU A 703      23.402   9.846   5.878  0.00  0.00    +0.000 OA
ATOM     17  C3  YFU A 703      23.861  10.533  10.446  0.00  0.00    +0.000 C 
ATOM     18  C4  YFU A 703      23.428  10.840  12.059  0.00  0.00    +0.000 C 
ATOM     19  C5  YFU A 703      24.407  11.866  12.010  0.00  0.00    +0.000 C 
ATOM     20  C7  YFU A 703      24.788  11.936  10.648  0.00  0.00    +0.000 C 
ATOM     21  C8  YFU A 703      22.851  10.667   9.326  0.00  0.00    +0.000 C 
ATOM     22  C9  YFU A 703      23.561  11.254   8.105  0.00  0.00    +0.000 C 
ATOM     23  C10 YFU A 703      24.285   9.523   6.551  0.00  0.00    +0.000 C 
BRANCH  19  24
ATOM     24  O1  YFU A 703      23.853  13.169  12.445  0.00  0.00    +0.000 OA
ATOM     25  C6  YFU A 703      22.453  13.148  12.348  0.00  0.00    +0.000 C 
ENDBRANCH  19  24
ENDBRANCH   4  23
BRANCH   3  26
ATOM     26  C29 YFU A 703      23.745   4.079   4.868  0.00  0.00    +0.000 C 
ATOM     27  C30 YFU A 703      24.305   3.238   6.013  0.00  0.00    +0.000 C 
ENDBRANCH   3  26
BRANCH   1  28
ATOM     28  C16 YFU A 703      28.440   3.723   3.397  0.00  0.00    +0.000 C 
BRANCH  28  30
ATOM     29  O4  YFU A 703      29.599   3.124   5.275  0.00  0.00    +0.000 OA
ATOM     30  C17 YFU A 703      28.811   2.734   4.526  0.00  0.00    +0.000 C 
BRANCH  30  33
ATOM     31  C22 YFU A 703      27.100  -3.494   4.476  0.00  0.00    +0.000 A 
ATOM     32  N3  YFU A 703      26.809   1.472   4.781  0.00  0.00    +0.000 NA
ATOM     33  C18 YFU A 703      28.254   1.437   4.835  0.00  0.00    +0.000 C 
ATOM     34  C19 YFU A 703      26.393   0.154   4.943  0.00  0.00    +0.000 C 
ATOM     35  C20 YFU A 703      27.047  -1.025   4.547  0.00  0.00    +0.000 A 
ATOM     36  C21 YFU A 703      26.480  -2.430   4.860  0.00  0.00    +0.000 A 
ATOM     37  C23 YFU A 703      28.367  -3.359   3.745  0.00  0.00    +0.000 A 
ATOM     38  C24 YFU A 703      28.848  -2.193   3.483  0.00  0.00    +0.000 A 
ATOM     39  C25 YFU A 703      28.099  -0.923   3.934  0.00  0.00    +0.000 A 
ATOM     40  C26 YFU A 703      28.661   0.486   3.644  0.00  0.00    +0.000 C 
ENDBRANCH  30  33
ENDBRANCH  28  30
ENDBRANCH   1  28
TORSDOF 6
ENDMDL
