MODEL 1
REMARK VINA RESULT:      -7.5      0.000      0.000
REMARK  Name = ligand_pdbs\YJG.pdb
REMARK  9 active torsions:
REMARK  status: ('A' for Active; 'I' for Inactive)
REMARK    1  A    between atoms: C01_5  and  C02_6
REMARK    2  A    between atoms: C05_9  and  N06_21
REMARK    3  A    between atoms: C07_10  and  C09_11
REMARK    4  A    between atoms: C09_11  and  N10_22
REMARK    5  A    between atoms: C19_15  and  S20_30
REMARK    6  A    between atoms: C23_16  and  C25_17
REMARK    7  A    between atoms: C23_16  and  N23_24
REMARK    8  A    between atoms: C25_17  and  C26_18
REMARK    9  A    between atoms: N23_24  and  S20_30
REMARK                            x       y       z     vdW  Elec       q    Type
REMARK                         _______ _______ _______ _____ _____    ______ ____
ROOT
ATOM      1  C01 YJG A 701      23.129   5.692   4.575  0.00  0.00    +0.000 C 
ATOM      2  C02 YJG A 701      24.372   4.867   4.695  0.00  0.00    +0.000 A 
ATOM      3  C03 YJG A 701      24.216   3.481   4.775  0.00  0.00    +0.000 A 
ATOM      4  C04 YJG A 701      25.304   2.621   4.888  0.00  0.00    +0.000 A 
ATOM      5  C05 YJG A 701      26.596   3.126   4.927  0.00  0.00    +0.000 A 
ATOM      6  C18 YJG A 701      26.770   4.510   4.846  0.00  0.00    +0.000 A 
ATOM      7  C19 YJG A 701      25.674   5.373   4.731  0.00  0.00    +0.000 A 
ENDROOT
BRANCH   5   9
ATOM      8  C07 YJG A 701      28.807   2.538   5.929  0.00  0.00    +0.000 C 
ATOM      9  N06 YJG A 701      27.760   2.333   5.040  0.00  0.00    +0.000 N 
ATOM     10  O08 YJG A 701      28.899   3.432   6.757  0.00  0.00    +0.000 OA
ATOM     11  H06 YJG A 701      27.988   1.822   4.195  0.00  0.00    +0.000 HD
BRANCH   8  12
ATOM     12  C09 YJG A 701      29.911   1.505   5.802  0.00  0.00    +0.000 C 
BRANCH  12  17
ATOM     13  C14 YJG A 701      28.174  -1.501   4.295  0.00  0.00    +0.000 A 
ATOM     14  C16 YJG A 701      28.597  -0.544   5.339  0.00  0.00    +0.000 A 
ATOM     15  C12 YJG A 701      29.399  -0.196   2.730  0.00  0.00    +0.000 A 
ATOM     16  C13 YJG A 701      28.567  -1.356   3.033  0.00  0.00    +0.000 A 
ATOM     17  N10 YJG A 701      29.389   0.505   4.893  0.00  0.00    +0.000 N 
ATOM     18  N11 YJG A 701      29.799   0.663   3.597  0.00  0.00    +0.000 NA
ATOM     19  O17 YJG A 701      28.240  -0.699   6.504  0.00  0.00    +0.000 OA
ATOM     20 CL1  YJG A 701      27.178  -2.818   4.766  0.00  0.00    +0.000 Cl
ENDBRANCH  12  17
ENDBRANCH   8  12
ENDBRANCH   5   9
BRANCH   7  23
ATOM     21  O21 YJG A 701      25.573   7.566   3.326  0.00  0.00    +0.000 OA
ATOM     22  O22 YJG A 701      27.342   7.358   5.086  0.00  0.00    +0.000 OA
ATOM     23  S20 YJG A 701      25.990   7.116   4.636  0.00  0.00    +0.000 S 
BRANCH  23  24
ATOM     24  N23 YJG A 701      24.901   7.689   5.798  0.00  0.00    +0.000 NA
ATOM     25  H23 YJG A 701      24.070   7.146   6.051  0.00  0.00    +0.000 HD
BRANCH  24  26
ATOM     26  C23 YJG A 701      25.106   9.001   6.434  0.00  0.00    +0.000 C 
BRANCH  26  27
ATOM     27  C25 YJG A 701      23.798   9.754   6.632  0.00  0.00    +0.000 C 
BRANCH  27  30
ATOM     28  C28 YJG A 701      24.329  11.195  10.077  0.00  0.00    +0.000 C 
ATOM     29  C27 YJG A 701      24.207  10.257   9.060  0.00  0.00    +0.000 C 
ATOM     30  C26 YJG A 701      23.933  10.711   7.777  0.00  0.00    +0.000 C 
ATOM     31  C29 YJG A 701      24.180  12.546   9.797  0.00  0.00    +0.000 C 
ATOM     32  C30 YJG A 701      23.916  12.905   8.490  0.00  0.00    +0.000 C 
ATOM     33  N31 YJG A 701      23.790  12.024   7.474  0.00  0.00    +0.000 NA
ENDBRANCH  27  30
ENDBRANCH  26  27
ENDBRANCH  24  26
ENDBRANCH  23  24
ENDBRANCH   7  23
TORSDOF 8
ENDMDL
MODEL 2
REMARK VINA RESULT:      -6.0      3.388      6.200
REMARK  Name = ligand_pdbs\YJG.pdb
REMARK  9 active torsions:
REMARK  status: ('A' for Active; 'I' for Inactive)
REMARK    1  A    between atoms: C01_5  and  C02_6
REMARK    2  A    between atoms: C05_9  and  N06_21
REMARK    3  A    between atoms: C07_10  and  C09_11
REMARK    4  A    between atoms: C09_11  and  N10_22
REMARK    5  A    between atoms: C19_15  and  S20_30
REMARK    6  A    between atoms: C23_16  and  C25_17
REMARK    7  A    between atoms: C23_16  and  N23_24
REMARK    8  A    between atoms: C25_17  and  C26_18
REMARK    9  A    between atoms: N23_24  and  S20_30
REMARK                            x       y       z     vdW  Elec       q    Type
REMARK                         _______ _______ _______ _____ _____    ______ ____
ROOT
ATOM      1  C01 YJG A 701      24.007   6.877   4.988  0.00  0.00    +0.000 C 
ATOM      2  C02 YJG A 701      24.349   5.467   4.616  0.00  0.00    +0.000 A 
ATOM      3  C03 YJG A 701      23.290   4.568   4.469  0.00  0.00    +0.000 A 
ATOM      4  C04 YJG A 701      23.495   3.236   4.125  0.00  0.00    +0.000 A 
ATOM      5  C05 YJG A 701      24.781   2.755   3.917  0.00  0.00    +0.000 A 
ATOM      6  C18 YJG A 701      25.852   3.642   4.060  0.00  0.00    +0.000 A 
ATOM      7  C19 YJG A 701      25.642   4.981   4.404  0.00  0.00    +0.000 A 
ENDROOT
BRANCH   5   9
ATOM      8  C07 YJG A 701      25.542   0.432   4.429  0.00  0.00    +0.000 C 
ATOM      9  N06 YJG A 701      25.087   1.421   3.567  0.00  0.00    +0.000 N 
ATOM     10  O08 YJG A 701      25.754   0.547   5.627  0.00  0.00    +0.000 OA
ATOM     11  H06 YJG A 701      25.323   1.302   2.589  0.00  0.00    +0.000 HD
BRANCH   8  12
ATOM     12  C09 YJG A 701      25.775  -0.900   3.741  0.00  0.00    +0.000 C 
BRANCH  12  17
ATOM     13  C14 YJG A 701      29.403  -1.952   3.501  0.00  0.00    +0.000 A 
ATOM     14  C16 YJG A 701      27.957  -2.073   3.787  0.00  0.00    +0.000 A 
ATOM     15  C12 YJG A 701      28.979   0.266   2.756  0.00  0.00    +0.000 A 
ATOM     16  C13 YJG A 701      29.914  -0.824   3.019  0.00  0.00    +0.000 A 
ATOM     17  N10 YJG A 701      27.200  -0.949   3.485  0.00  0.00    +0.000 N 
ATOM     18  N11 YJG A 701      27.716   0.217   2.989  0.00  0.00    +0.000 NA
ATOM     19  O17 YJG A 701      27.501  -3.116   4.248  0.00  0.00    +0.000 OA
ATOM     20 CL1  YJG A 701      30.404  -3.307   3.833  0.00  0.00    +0.000 Cl
ENDBRANCH  12  17
ENDBRANCH   8  12
ENDBRANCH   5   9
BRANCH   7  23
ATOM     21  O21 YJG A 701      26.587   7.397   4.670  0.00  0.00    +0.000 OA
ATOM     22  O22 YJG A 701      28.009   5.678   3.532  0.00  0.00    +0.000 OA
ATOM     23  S20 YJG A 701      27.061   6.034   4.564  0.00  0.00    +0.000 S 
BRANCH  23  24
ATOM     24  N23 YJG A 701      27.653   5.528   6.066  0.00  0.00    +0.000 NA
ATOM     25  H23 YJG A 701      27.888   6.210   6.794  0.00  0.00    +0.000 HD
BRANCH  24  26
ATOM     26  C23 YJG A 701      27.883   4.100   6.339  0.00  0.00    +0.000 C 
BRANCH  26  27
ATOM     27  C25 YJG A 701      28.731   3.439   5.262  0.00  0.00    +0.000 C 
BRANCH  27  30
ATOM     28  C28 YJG A 701      31.329   1.008   6.517  0.00  0.00    +0.000 C 
ATOM     29  C27 YJG A 701      30.773   2.166   5.986  0.00  0.00    +0.000 C 
ATOM     30  C26 YJG A 701      29.396   2.217   5.821  0.00  0.00    +0.000 C 
ATOM     31  C29 YJG A 701      30.511  -0.056   6.870  0.00  0.00    +0.000 C 
ATOM     32  C30 YJG A 701      29.151   0.089   6.676  0.00  0.00    +0.000 C 
ATOM     33  N31 YJG A 701      28.573   1.196   6.163  0.00  0.00    +0.000 NA
ENDBRANCH  27  30
ENDBRANCH  26  27
ENDBRANCH  24  26
ENDBRANCH  23  24
ENDBRANCH   7  23
TORSDOF 8
ENDMDL
MODEL 3
REMARK VINA RESULT:      -5.8      1.437      2.097
REMARK  Name = ligand_pdbs\YJG.pdb
REMARK  9 active torsions:
REMARK  status: ('A' for Active; 'I' for Inactive)
REMARK    1  A    between atoms: C01_5  and  C02_6
REMARK    2  A    between atoms: C05_9  and  N06_21
REMARK    3  A    between atoms: C07_10  and  C09_11
REMARK    4  A    between atoms: C09_11  and  N10_22
REMARK    5  A    between atoms: C19_15  and  S20_30
REMARK    6  A    between atoms: C23_16  and  C25_17
REMARK    7  A    between atoms: C23_16  and  N23_24
REMARK    8  A    between atoms: C25_17  and  C26_18
REMARK    9  A    between atoms: N23_24  and  S20_30
REMARK                            x       y       z     vdW  Elec       q    Type
REMARK                         _______ _______ _______ _____ _____    ______ ____
ROOT
ATOM      1  C01 YJG A 701      22.988   5.896   4.752  0.00  0.00    +0.000 C 
ATOM      2  C02 YJG A 701      24.122   4.943   4.530  0.00  0.00    +0.000 A 
ATOM      3  C03 YJG A 701      23.810   3.584   4.443  0.00  0.00    +0.000 A 
ATOM      4  C04 YJG A 701      24.786   2.615   4.237  0.00  0.00    +0.000 A 
ATOM      5  C05 YJG A 701      26.120   2.977   4.112  0.00  0.00    +0.000 A 
ATOM      6  C18 YJG A 701      26.449   4.333   4.196  0.00  0.00    +0.000 A 
ATOM      7  C19 YJG A 701      25.465   5.306   4.402  0.00  0.00    +0.000 A 
ENDROOT
BRANCH   5   9
ATOM      8  C07 YJG A 701      27.145   0.946   3.081  0.00  0.00    +0.000 C 
ATOM      9  N06 YJG A 701      27.178   2.065   3.903  0.00  0.00    +0.000 N 
ATOM     10  O08 YJG A 701      26.202   0.565   2.404  0.00  0.00    +0.000 OA
ATOM     11  H06 YJG A 701      27.848   2.038   4.664  0.00  0.00    +0.000 HD
BRANCH   8  12
ATOM     12  C09 YJG A 701      28.450   0.172   3.072  0.00  0.00    +0.000 C 
BRANCH  12  17
ATOM     13  C14 YJG A 701      29.623   0.285   6.667  0.00  0.00    +0.000 A 
ATOM     14  C16 YJG A 701      28.915  -0.222   5.473  0.00  0.00    +0.000 A 
ATOM     15  C12 YJG A 701      30.454   2.055   5.315  0.00  0.00    +0.000 A 
ATOM     16  C13 YJG A 701      30.357   1.392   6.612  0.00  0.00    +0.000 A 
ATOM     17  N10 YJG A 701      29.105   0.521   4.315  0.00  0.00    +0.000 N 
ATOM     18  N11 YJG A 701      29.857   1.662   4.247  0.00  0.00    +0.000 NA
ATOM     19  O17 YJG A 701      28.227  -1.237   5.544  0.00  0.00    +0.000 OA
ATOM     20 CL1  YJG A 701      29.451  -0.589   8.135  0.00  0.00    +0.000 Cl
ENDBRANCH  12  17
ENDBRANCH   8  12
ENDBRANCH   5   9
BRANCH   7  23
ATOM     21  O21 YJG A 701      25.700   7.615   3.214  0.00  0.00    +0.000 OA
ATOM     22  O22 YJG A 701      27.312   7.046   5.044  0.00  0.00    +0.000 OA
ATOM     23  S20 YJG A 701      25.975   7.003   4.495  0.00  0.00    +0.000 S 
BRANCH  23  24
ATOM     24  N23 YJG A 701      24.880   7.591   5.644  0.00  0.00    +0.000 NA
ATOM     25  H23 YJG A 701      24.019   7.078   5.858  0.00  0.00    +0.000 HD
BRANCH  24  26
ATOM     26  C23 YJG A 701      25.124   8.873   6.325  0.00  0.00    +0.000 C 
BRANCH  26  27
ATOM     27  C25 YJG A 701      23.855   9.704   6.455  0.00  0.00    +0.000 C 
BRANCH  27  30
ATOM     28  C28 YJG A 701      24.363  10.999   9.961  0.00  0.00    +0.000 C 
ATOM     29  C27 YJG A 701      24.269  10.106   8.900  0.00  0.00    +0.000 C 
ATOM     30  C26 YJG A 701      23.963  10.610   7.644  0.00  0.00    +0.000 C 
ATOM     31  C29 YJG A 701      24.157  12.355   9.748  0.00  0.00    +0.000 C 
ATOM     32  C30 YJG A 701      23.864  12.764   8.462  0.00  0.00    +0.000 C 
ATOM     33  N31 YJG A 701      23.764  11.929   7.406  0.00  0.00    +0.000 NA
ENDBRANCH  27  30
ENDBRANCH  26  27
ENDBRANCH  24  26
ENDBRANCH  23  24
ENDBRANCH   7  23
TORSDOF 8
ENDMDL
MODEL 4
REMARK VINA RESULT:      -5.5      2.057      2.736
REMARK  Name = ligand_pdbs\YJG.pdb
REMARK  9 active torsions:
REMARK  status: ('A' for Active; 'I' for Inactive)
REMARK    1  A    between atoms: C01_5  and  C02_6
REMARK    2  A    between atoms: C05_9  and  N06_21
REMARK    3  A    between atoms: C07_10  and  C09_11
REMARK    4  A    between atoms: C09_11  and  N10_22
REMARK    5  A    between atoms: C19_15  and  S20_30
REMARK    6  A    between atoms: C23_16  and  C25_17
REMARK    7  A    between atoms: C23_16  and  N23_24
REMARK    8  A    between atoms: C25_17  and  C26_18
REMARK    9  A    between atoms: N23_24  and  S20_30
REMARK                            x       y       z     vdW  Elec       q    Type
REMARK                         _______ _______ _______ _____ _____    ______ ____
ROOT
ATOM      1  C01 YJG A 701      27.861   7.545   6.046  0.00  0.00    +0.000 C 
ATOM      2  C02 YJG A 701      27.510   6.281   5.326  0.00  0.00    +0.000 A 
ATOM      3  C03 YJG A 701      28.322   5.167   5.553  0.00  0.00    +0.000 A 
ATOM      4  C04 YJG A 701      28.085   3.943   4.936  0.00  0.00    +0.000 A 
ATOM      5  C05 YJG A 701      27.017   3.793   4.062  0.00  0.00    +0.000 A 
ATOM      6  C18 YJG A 701      26.194   4.897   3.824  0.00  0.00    +0.000 A 
ATOM      7  C19 YJG A 701      26.435   6.127   4.447  0.00  0.00    +0.000 A 
ENDROOT
BRANCH   5   9
ATOM      8  C07 YJG A 701      25.936   1.548   3.895  0.00  0.00    +0.000 C 
ATOM      9  N06 YJG A 701      26.699   2.592   3.389  0.00  0.00    +0.000 N 
ATOM     10  O08 YJG A 701      25.413   1.492   4.998  0.00  0.00    +0.000 OA
ATOM     11  H06 YJG A 701      27.359   2.347   2.660  0.00  0.00    +0.000 HD
BRANCH   8  12
ATOM     12  C09 YJG A 701      25.775   0.397   2.920  0.00  0.00    +0.000 C 
BRANCH  12  17
ATOM     13  C14 YJG A 701      28.776  -1.764   3.724  0.00  0.00    +0.000 A 
ATOM     14  C16 YJG A 701      28.022  -0.612   3.186  0.00  0.00    +0.000 A 
ATOM     15  C12 YJG A 701      26.708  -2.636   4.509  0.00  0.00    +0.000 A 
ATOM     16  C13 YJG A 701      28.154  -2.758   4.350  0.00  0.00    +0.000 A 
ATOM     17  N10 YJG A 701      26.653  -0.643   3.415  0.00  0.00    +0.000 N 
ATOM     18  N11 YJG A 701      26.003  -1.661   4.058  0.00  0.00    +0.000 NA
ATOM     19  O17 YJG A 701      28.609   0.292   2.595  0.00  0.00    +0.000 OA
ATOM     20 CL1  YJG A 701      30.478  -1.789   3.495  0.00  0.00    +0.000 Cl
ENDBRANCH  12  17
ENDBRANCH   8  12
ENDBRANCH   5   9
BRANCH   7  23
ATOM     21  O21 YJG A 701      24.329   6.986   3.173  0.00  0.00    +0.000 OA
ATOM     22  O22 YJG A 701      26.136   8.626   3.731  0.00  0.00    +0.000 OA
ATOM     23  S20 YJG A 701      25.338   7.474   4.086  0.00  0.00    +0.000 S 
BRANCH  23  24
ATOM     24  N23 YJG A 701      24.644   7.722   5.609  0.00  0.00    +0.000 NA
ATOM     25  H23 YJG A 701      23.953   7.064   5.983  0.00  0.00    +0.000 HD
BRANCH  24  26
ATOM     26  C23 YJG A 701      24.987   8.912   6.406  0.00  0.00    +0.000 C 
BRANCH  26  27
ATOM     27  C25 YJG A 701      23.841   9.911   6.468  0.00  0.00    +0.000 C 
BRANCH  27  30
ATOM     28  C28 YJG A 701      24.305  10.931  10.070  0.00  0.00    +0.000 C 
ATOM     29  C27 YJG A 701      24.210  10.122   8.945  0.00  0.00    +0.000 C 
ATOM     30  C26 YJG A 701      23.947  10.724   7.723  0.00  0.00    +0.000 C 
ATOM     31  C29 YJG A 701      24.142  12.305   9.953  0.00  0.00    +0.000 C 
ATOM     32  C30 YJG A 701      23.891  12.816   8.694  0.00  0.00    +0.000 C 
ATOM     33  N31 YJG A 701      23.791  12.063   7.579  0.00  0.00    +0.000 NA
ENDBRANCH  27  30
ENDBRANCH  26  27
ENDBRANCH  24  26
ENDBRANCH  23  24
ENDBRANCH   7  23
TORSDOF 8
ENDMDL
MODEL 5
REMARK VINA RESULT:      -5.3      4.659      7.573
REMARK  Name = ligand_pdbs\YJG.pdb
REMARK  9 active torsions:
REMARK  status: ('A' for Active; 'I' for Inactive)
REMARK    1  A    between atoms: C01_5  and  C02_6
REMARK    2  A    between atoms: C05_9  and  N06_21
REMARK    3  A    between atoms: C07_10  and  C09_11
REMARK    4  A    between atoms: C09_11  and  N10_22
REMARK    5  A    between atoms: C19_15  and  S20_30
REMARK    6  A    between atoms: C23_16  and  C25_17
REMARK    7  A    between atoms: C23_16  and  N23_24
REMARK    8  A    between atoms: C25_17  and  C26_18
REMARK    9  A    between atoms: N23_24  and  S20_30
REMARK                            x       y       z     vdW  Elec       q    Type
REMARK                         _______ _______ _______ _____ _____    ______ ____
ROOT
ATOM      1  C01 YJG A 701      30.984  -2.342   3.878  0.00  0.00    +0.000 C 
ATOM      2  C02 YJG A 701      29.636  -1.694   3.938  0.00  0.00    +0.000 A 
ATOM      3  C03 YJG A 701      28.653  -2.177   3.070  0.00  0.00    +0.000 A 
ATOM      4  C04 YJG A 701      27.367  -1.648   3.043  0.00  0.00    +0.000 A 
ATOM      5  C05 YJG A 701      27.020  -0.606   3.892  0.00  0.00    +0.000 A 
ATOM      6  C18 YJG A 701      27.990  -0.112   4.768  0.00  0.00    +0.000 A 
ATOM      7  C19 YJG A 701      29.283  -0.647   4.793  0.00  0.00    +0.000 A 
ENDROOT
BRANCH   5   9
ATOM      8  C07 YJG A 701      25.245   0.929   3.037  0.00  0.00    +0.000 C 
ATOM      9  N06 YJG A 701      25.741  -0.005   3.936  0.00  0.00    +0.000 N 
ATOM     10  O08 YJG A 701      25.824   1.386   2.062  0.00  0.00    +0.000 OA
ATOM     11  H06 YJG A 701      25.329   0.006   4.862  0.00  0.00    +0.000 HD
BRANCH   8  12
ATOM     12  C09 YJG A 701      23.832   1.379   3.360  0.00  0.00    +0.000 C 
BRANCH  12  17
ATOM     13  C14 YJG A 701      24.671   3.768   6.172  0.00  0.00    +0.000 A 
ATOM     14  C16 YJG A 701      24.621   2.492   5.428  0.00  0.00    +0.000 A 
ATOM     15  C12 YJG A 701      23.492   4.765   4.364  0.00  0.00    +0.000 A 
ATOM     16  C13 YJG A 701      24.115   4.871   5.680  0.00  0.00    +0.000 A 
ATOM     17  N10 YJG A 701      23.991   2.553   4.192  0.00  0.00    +0.000 N 
ATOM     18  N11 YJG A 701      23.416   3.683   3.676  0.00  0.00    +0.000 NA
ATOM     19  O17 YJG A 701      25.124   1.477   5.903  0.00  0.00    +0.000 OA
ATOM     20 CL1  YJG A 701      25.449   3.777   7.703  0.00  0.00    +0.000 Cl
ENDBRANCH  12  17
ENDBRANCH   8  12
ENDBRANCH   5   9
BRANCH   7  23
ATOM     21  O21 YJG A 701      31.700  -0.662   5.768  0.00  0.00    +0.000 OA
ATOM     22  O22 YJG A 701      29.826   0.106   7.240  0.00  0.00    +0.000 OA
ATOM     23  S20 YJG A 701      30.450   0.044   5.937  0.00  0.00    +0.000 S 
BRANCH  23  24
ATOM     24  N23 YJG A 701      30.602   1.610   5.314  0.00  0.00    +0.000 NA
ATOM     25  H23 YJG A 701      31.014   1.769   4.389  0.00  0.00    +0.000 HD
BRANCH  24  26
ATOM     26  C23 YJG A 701      30.184   2.777   6.108  0.00  0.00    +0.000 C 
BRANCH  26  27
ATOM     27  C25 YJG A 701      28.673   2.847   6.273  0.00  0.00    +0.000 C 
BRANCH  27  30
ATOM     28  C28 YJG A 701      27.195   4.336   3.137  0.00  0.00    +0.000 C 
ATOM     29  C27 YJG A 701      27.728   3.395   4.010  0.00  0.00    +0.000 C 
ATOM     30  C26 YJG A 701      28.099   3.813   5.280  0.00  0.00    +0.000 C 
ATOM     31  C29 YJG A 701      27.042   5.653   3.547  0.00  0.00    +0.000 C 
ATOM     32  C30 YJG A 701      27.432   5.975   4.832  0.00  0.00    +0.000 C 
ATOM     33  N31 YJG A 701      27.954   5.090   5.708  0.00  0.00    +0.000 NA
ENDBRANCH  27  30
ENDBRANCH  26  27
ENDBRANCH  24  26
ENDBRANCH  23  24
ENDBRANCH   7  23
TORSDOF 8
ENDMDL
MODEL 6
REMARK VINA RESULT:      -5.1      4.293      8.276
REMARK  Name = ligand_pdbs\YJG.pdb
REMARK  9 active torsions:
REMARK  status: ('A' for Active; 'I' for Inactive)
REMARK    1  A    between atoms: C01_5  and  C02_6
REMARK    2  A    between atoms: C05_9  and  N06_21
REMARK    3  A    between atoms: C07_10  and  C09_11
REMARK    4  A    between atoms: C09_11  and  N10_22
REMARK    5  A    between atoms: C19_15  and  S20_30
REMARK    6  A    between atoms: C23_16  and  C25_17
REMARK    7  A    between atoms: C23_16  and  N23_24
REMARK    8  A    between atoms: C25_17  and  C26_18
REMARK    9  A    between atoms: N23_24  and  S20_30
REMARK                            x       y       z     vdW  Elec       q    Type
REMARK                         _______ _______ _______ _____ _____    ______ ____
ROOT
ATOM      1  C01 YJG A 701      27.189  -2.752   4.601  0.00  0.00    +0.000 C 
ATOM      2  C02 YJG A 701      27.093  -1.331   4.140  0.00  0.00    +0.000 A 
ATOM      3  C03 YJG A 701      25.854  -0.698   4.266  0.00  0.00    +0.000 A 
ATOM      4  C04 YJG A 701      25.656   0.620   3.870  0.00  0.00    +0.000 A 
ATOM      5  C05 YJG A 701      26.701   1.355   3.328  0.00  0.00    +0.000 A 
ATOM      6  C18 YJG A 701      27.948   0.737   3.196  0.00  0.00    +0.000 A 
ATOM      7  C19 YJG A 701      28.145  -0.589   3.596  0.00  0.00    +0.000 A 
ENDROOT
BRANCH   5   9
ATOM      8  C07 YJG A 701      25.733   3.656   3.414  0.00  0.00    +0.000 C 
ATOM      9  N06 YJG A 701      26.595   2.697   2.897  0.00  0.00    +0.000 N 
ATOM     10  O08 YJG A 701      24.929   3.505   4.321  0.00  0.00    +0.000 OA
ATOM     11  H06 YJG A 701      26.902   2.843   1.943  0.00  0.00    +0.000 HD
BRANCH   8  12
ATOM     12  C09 YJG A 701      25.866   5.006   2.733  0.00  0.00    +0.000 C 
BRANCH  12  17
ATOM     13  C14 YJG A 701      25.788   7.746   5.343  0.00  0.00    +0.000 A 
ATOM     14  C16 YJG A 701      25.280   6.845   4.287  0.00  0.00    +0.000 A 
ATOM     15  C12 YJG A 701      27.894   6.663   5.129  0.00  0.00    +0.000 A 
ATOM     16  C13 YJG A 701      27.052   7.682   5.749  0.00  0.00    +0.000 A 
ATOM     17  N10 YJG A 701      26.203   5.932   3.795  0.00  0.00    +0.000 N 
ATOM     18  N11 YJG A 701      27.506   5.858   4.205  0.00  0.00    +0.000 NA
ATOM     19  O17 YJG A 701      24.113   6.927   3.910  0.00  0.00    +0.000 OA
ATOM     20 CL1  YJG A 701      24.700   8.893   6.014  0.00  0.00    +0.000 Cl
ENDBRANCH  12  17
ENDBRANCH   8  12
ENDBRANCH   5   9
BRANCH   7  23
ATOM     21  O21 YJG A 701      30.446  -0.528   2.372  0.00  0.00    +0.000 OA
ATOM     22  O22 YJG A 701      29.619  -2.723   3.248  0.00  0.00    +0.000 OA
ATOM     23  S20 YJG A 701      29.761  -1.292   3.391  0.00  0.00    +0.000 S 
BRANCH  23  24
ATOM     24  N23 YJG A 701      30.441  -0.945   4.902  0.00  0.00    +0.000 NA
ATOM     25  H23 YJG A 701      31.388  -1.260   5.135  0.00  0.00    +0.000 HD
BRANCH  24  26
ATOM     26  C23 YJG A 701      29.667  -0.223   5.925  0.00  0.00    +0.000 C 
BRANCH  26  27
ATOM     27  C25 YJG A 701      30.184   1.191   6.145  0.00  0.00    +0.000 C 
BRANCH  27  30
ATOM     28  C28 YJG A 701      28.144   4.257   6.958  0.00  0.00    +0.000 C 
ATOM     29  C27 YJG A 701      29.247   3.460   6.678  0.00  0.00    +0.000 C 
ATOM     30  C26 YJG A 701      29.040   2.106   6.460  0.00  0.00    +0.000 C 
ATOM     31  C29 YJG A 701      26.876   3.695   7.010  0.00  0.00    +0.000 C 
ATOM     32  C30 YJG A 701      26.766   2.338   6.773  0.00  0.00    +0.000 C 
ATOM     33  N31 YJG A 701      27.812   1.531   6.499  0.00  0.00    +0.000 NA
ENDBRANCH  27  30
ENDBRANCH  26  27
ENDBRANCH  24  26
ENDBRANCH  23  24
ENDBRANCH   7  23
TORSDOF 8
ENDMDL
MODEL 7
REMARK VINA RESULT:      -5.0      4.393      8.939
REMARK  Name = ligand_pdbs\YJG.pdb
REMARK  9 active torsions:
REMARK  status: ('A' for Active; 'I' for Inactive)
REMARK    1  A    between atoms: C01_5  and  C02_6
REMARK    2  A    between atoms: C05_9  and  N06_21
REMARK    3  A    between atoms: C07_10  and  C09_11
REMARK    4  A    between atoms: C09_11  and  N10_22
REMARK    5  A    between atoms: C19_15  and  S20_30
REMARK    6  A    between atoms: C23_16  and  C25_17
REMARK    7  A    between atoms: C23_16  and  N23_24
REMARK    8  A    between atoms: C25_17  and  C26_18
REMARK    9  A    between atoms: N23_24  and  S20_30
REMARK                            x       y       z     vdW  Elec       q    Type
REMARK                         _______ _______ _______ _____ _____    ______ ____
ROOT
ATOM      1  C01 YJG A 701      27.413  -1.729   1.548  0.00  0.00    +0.000 C 
ATOM      2  C02 YJG A 701      26.941  -0.636   2.456  0.00  0.00    +0.000 A 
ATOM      3  C03 YJG A 701      26.549   0.566   1.861  0.00  0.00    +0.000 A 
ATOM      4  C04 YJG A 701      26.094   1.645   2.611  0.00  0.00    +0.000 A 
ATOM      5  C05 YJG A 701      26.016   1.556   3.994  0.00  0.00    +0.000 A 
ATOM      6  C18 YJG A 701      26.402   0.360   4.604  0.00  0.00    +0.000 A 
ATOM      7  C19 YJG A 701      26.859  -0.725   3.848  0.00  0.00    +0.000 A 
ENDROOT
BRANCH   5   9
ATOM      8  C07 YJG A 701      24.359   3.274   4.731  0.00  0.00    +0.000 C 
ATOM      9  N06 YJG A 701      25.567   2.598   4.837  0.00  0.00    +0.000 N 
ATOM     10  O08 YJG A 701      23.485   3.083   3.899  0.00  0.00    +0.000 OA
ATOM     11  H06 YJG A 701      26.318   3.099   5.298  0.00  0.00    +0.000 HD
BRANCH   8  12
ATOM     12  C09 YJG A 701      24.175   4.340   5.795  0.00  0.00    +0.000 C 
BRANCH  12  17
ATOM     13  C14 YJG A 701      26.222   7.367   4.810  0.00  0.00    +0.000 A 
ATOM     14  C16 YJG A 701      25.018   6.533   5.007  0.00  0.00    +0.000 A 
ATOM     15  C12 YJG A 701      27.500   5.578   5.715  0.00  0.00    +0.000 A 
ATOM     16  C13 YJG A 701      27.430   6.914   5.130  0.00  0.00    +0.000 A 
ATOM     17  N10 YJG A 701      25.249   5.285   5.571  0.00  0.00    +0.000 N 
ATOM     18  N11 YJG A 701      26.488   4.809   5.904  0.00  0.00    +0.000 NA
ATOM     19  O17 YJG A 701      23.910   6.959   4.691  0.00  0.00    +0.000 OA
ATOM     20 CL1  YJG A 701      26.015   8.931   4.132  0.00  0.00    +0.000 Cl
ENDBRANCH  12  17
ENDBRANCH   8  12
ENDBRANCH   5   9
BRANCH   7  23
ATOM     21  O21 YJG A 701      26.315  -3.202   4.451  0.00  0.00    +0.000 OA
ATOM     22  O22 YJG A 701      27.667  -1.850   6.068  0.00  0.00    +0.000 OA
ATOM     23  S20 YJG A 701      27.329  -2.204   4.707  0.00  0.00    +0.000 S 
BRANCH  23  24
ATOM     24  N23 YJG A 701      28.741  -2.612   3.868  0.00  0.00    +0.000 NA
ATOM     25  H23 YJG A 701      28.738  -3.361   3.169  0.00  0.00    +0.000 HD
BRANCH  24  26
ATOM     26  C23 YJG A 701      30.012  -1.926   4.159  0.00  0.00    +0.000 C 
BRANCH  26  27
ATOM     27  C25 YJG A 701      30.087  -0.555   3.504  0.00  0.00    +0.000 C 
BRANCH  27  30
ATOM     28  C28 YJG A 701      30.053   1.287   6.796  0.00  0.00    +0.000 C 
ATOM     29  C27 YJG A 701      30.206   0.253   5.880  0.00  0.00    +0.000 C 
ATOM     30  C26 YJG A 701      29.933   0.513   4.545  0.00  0.00    +0.000 C 
ATOM     31  C29 YJG A 701      29.640   2.540   6.365  0.00  0.00    +0.000 C 
ATOM     32  C30 YJG A 701      29.398   2.707   5.015  0.00  0.00    +0.000 C 
ATOM     33  N31 YJG A 701      29.535   1.728   4.096  0.00  0.00    +0.000 NA
ENDBRANCH  27  30
ENDBRANCH  26  27
ENDBRANCH  24  26
ENDBRANCH  23  24
ENDBRANCH   7  23
TORSDOF 8
ENDMDL
MODEL 8
REMARK VINA RESULT:      -4.8      3.627      6.435
REMARK  Name = ligand_pdbs\YJG.pdb
REMARK  9 active torsions:
REMARK  status: ('A' for Active; 'I' for Inactive)
REMARK    1  A    between atoms: C01_5  and  C02_6
REMARK    2  A    between atoms: C05_9  and  N06_21
REMARK    3  A    between atoms: C07_10  and  C09_11
REMARK    4  A    between atoms: C09_11  and  N10_22
REMARK    5  A    between atoms: C19_15  and  S20_30
REMARK    6  A    between atoms: C23_16  and  C25_17
REMARK    7  A    between atoms: C23_16  and  N23_24
REMARK    8  A    between atoms: C25_17  and  C26_18
REMARK    9  A    between atoms: N23_24  and  S20_30
REMARK                            x       y       z     vdW  Elec       q    Type
REMARK                         _______ _______ _______ _____ _____    ______ ____
ROOT
ATOM      1  C01 YJG A 701      23.922   6.911   5.035  0.00  0.00    +0.000 C 
ATOM      2  C02 YJG A 701      24.212   5.497   4.638  0.00  0.00    +0.000 A 
ATOM      3  C03 YJG A 701      23.145   4.595   4.652  0.00  0.00    +0.000 A 
ATOM      4  C04 YJG A 701      23.303   3.259   4.301  0.00  0.00    +0.000 A 
ATOM      5  C05 YJG A 701      24.548   2.776   3.922  0.00  0.00    +0.000 A 
ATOM      6  C18 YJG A 701      25.626   3.665   3.900  0.00  0.00    +0.000 A 
ATOM      7  C19 YJG A 701      25.464   5.009   4.253  0.00  0.00    +0.000 A 
ENDROOT
BRANCH   5   9
ATOM      8  C07 YJG A 701      25.408   0.469   4.342  0.00  0.00    +0.000 C 
ATOM      9  N06 YJG A 701      24.805   1.437   3.550  0.00  0.00    +0.000 N 
ATOM     10  O08 YJG A 701      25.814   0.609   5.486  0.00  0.00    +0.000 OA
ATOM     11  H06 YJG A 701      24.877   1.300   2.548  0.00  0.00    +0.000 HD
BRANCH   8  12
ATOM     12  C09 YJG A 701      25.537  -0.875   3.649  0.00  0.00    +0.000 C 
BRANCH  12  17
ATOM     13  C14 YJG A 701      29.268  -0.814   3.023  0.00  0.00    +0.000 A 
ATOM     14  C16 YJG A 701      27.861  -0.366   2.959  0.00  0.00    +0.000 A 
ATOM     15  C12 YJG A 701      28.532  -2.646   4.346  0.00  0.00    +0.000 A 
ATOM     16  C13 YJG A 701      29.607  -1.922   3.674  0.00  0.00    +0.000 A 
ATOM     17  N10 YJG A 701      26.956  -1.163   3.647  0.00  0.00    +0.000 N 
ATOM     18  N11 YJG A 701      27.293  -2.306   4.320  0.00  0.00    +0.000 NA
ATOM     19  O17 YJG A 701      27.561   0.651   2.339  0.00  0.00    +0.000 OA
ATOM     20 CL1  YJG A 701      30.450   0.131   2.209  0.00  0.00    +0.000 Cl
ENDBRANCH  12  17
ENDBRANCH   8  12
ENDBRANCH   5   9
BRANCH   7  23
ATOM     21  O21 YJG A 701      26.992   6.729   5.478  0.00  0.00    +0.000 OA
ATOM     22  O22 YJG A 701      26.828   6.845   2.982  0.00  0.00    +0.000 OA
ATOM     23  S20 YJG A 701      26.888   6.065   4.198  0.00  0.00    +0.000 S 
BRANCH  23  24
ATOM     24  N23 YJG A 701      28.120   4.913   4.062  0.00  0.00    +0.000 NA
ATOM     25  H23 YJG A 701      28.644   4.806   3.188  0.00  0.00    +0.000 HD
BRANCH  24  26
ATOM     26  C23 YJG A 701      28.433   4.013   5.185  0.00  0.00    +0.000 C 
BRANCH  26  27
ATOM     27  C25 YJG A 701      28.422   2.550   4.769  0.00  0.00    +0.000 C 
BRANCH  27  30
ATOM     28  C28 YJG A 701      29.895  -0.017   7.107  0.00  0.00    +0.000 C 
ATOM     29  C27 YJG A 701      28.957   0.665   6.342  0.00  0.00    +0.000 C 
ATOM     30  C26 YJG A 701      29.379   1.774   5.621  0.00  0.00    +0.000 C 
ATOM     31  C29 YJG A 701      31.215   0.412   7.133  0.00  0.00    +0.000 C 
ATOM     32  C30 YJG A 701      31.544   1.520   6.378  0.00  0.00    +0.000 C 
ATOM     33  N31 YJG A 701      30.663   2.210   5.623  0.00  0.00    +0.000 NA
ENDBRANCH  27  30
ENDBRANCH  26  27
ENDBRANCH  24  26
ENDBRANCH  23  24
ENDBRANCH   7  23
TORSDOF 8
ENDMDL
MODEL 9
REMARK VINA RESULT:      -4.8      3.796      6.915
REMARK  Name = ligand_pdbs\YJG.pdb
REMARK  9 active torsions:
REMARK  status: ('A' for Active; 'I' for Inactive)
REMARK    1  A    between atoms: C01_5  and  C02_6
REMARK    2  A    between atoms: C05_9  and  N06_21
REMARK    3  A    between atoms: C07_10  and  C09_11
REMARK    4  A    between atoms: C09_11  and  N10_22
REMARK    5  A    between atoms: C19_15  and  S20_30
REMARK    6  A    between atoms: C23_16  and  C25_17
REMARK    7  A    between atoms: C23_16  and  N23_24
REMARK    8  A    between atoms: C25_17  and  C26_18
REMARK    9  A    between atoms: N23_24  and  S20_30
REMARK                            x       y       z     vdW  Elec       q    Type
REMARK                         _______ _______ _______ _____ _____    ______ ____
ROOT
ATOM      1  C01 YJG A 701      24.240   7.241   4.637  0.00  0.00    +0.000 C 
ATOM      2  C02 YJG A 701      25.411   6.318   4.768  0.00  0.00    +0.000 A 
ATOM      3  C03 YJG A 701      26.681   6.897   4.819  0.00  0.00    +0.000 A 
ATOM      4  C04 YJG A 701      27.837   6.133   4.940  0.00  0.00    +0.000 A 
ATOM      5  C05 YJG A 701      27.758   4.749   5.013  0.00  0.00    +0.000 A 
ATOM      6  C18 YJG A 701      26.495   4.153   4.965  0.00  0.00    +0.000 A 
ATOM      7  C19 YJG A 701      25.334   4.925   4.844  0.00  0.00    +0.000 A 
ENDROOT
BRANCH   5   9
ATOM      8  C07 YJG A 701      29.011   2.851   6.046  0.00  0.00    +0.000 C 
ATOM      9  N06 YJG A 701      28.874   3.891   5.136  0.00  0.00    +0.000 N 
ATOM     10  O08 YJG A 701      28.196   2.503   6.887  0.00  0.00    +0.000 OA
ATOM     11  H06 YJG A 701      29.737   4.295   4.789  0.00  0.00    +0.000 HD
BRANCH   8  12
ATOM     12  C09 YJG A 701      30.332   2.116   5.919  0.00  0.00    +0.000 C 
BRANCH  12  17
ATOM     13  C14 YJG A 701      30.299  -1.072   3.881  0.00  0.00    +0.000 A 
ATOM     14  C16 YJG A 701      30.569  -0.185   5.032  0.00  0.00    +0.000 A 
ATOM     15  C12 YJG A 701      29.269   0.782   2.808  0.00  0.00    +0.000 A 
ATOM     16  C13 YJG A 701      29.687  -0.617   2.793  0.00  0.00    +0.000 A 
ATOM     17  N10 YJG A 701      30.113   1.119   4.893  0.00  0.00    +0.000 N 
ATOM     18  N11 YJG A 701      29.482   1.598   3.777  0.00  0.00    +0.000 NA
ATOM     19  O17 YJG A 701      31.151  -0.616   6.024  0.00  0.00    +0.000 OA
ATOM     20 CL1  YJG A 701      30.819  -2.706   3.985  0.00  0.00    +0.000 Cl
ENDBRANCH  12  17
ENDBRANCH   8  12
ENDBRANCH   5   9
BRANCH   7  23
ATOM     21  O21 YJG A 701      22.780   5.029   4.333  0.00  0.00    +0.000 OA
ATOM     22  O22 YJG A 701      23.587   3.390   6.044  0.00  0.00    +0.000 OA
ATOM     23  S20 YJG A 701      23.773   4.083   4.789  0.00  0.00    +0.000 S 
BRANCH  23  24
ATOM     24  N23 YJG A 701      24.075   2.954   3.566  0.00  0.00    +0.000 NA
ATOM     25  H23 YJG A 701      24.040   3.228   2.579  0.00  0.00    +0.000 HD
BRANCH  24  26
ATOM     26  C23 YJG A 701      24.351   1.545   3.896  0.00  0.00    +0.000 C 
BRANCH  26  27
ATOM     27  C25 YJG A 701      25.534   0.994   3.114  0.00  0.00    +0.000 C 
BRANCH  27  30
ATOM     28  C28 YJG A 701      26.870  -2.416   4.018  0.00  0.00    +0.000 C 
ATOM     29  C27 YJG A 701      26.285  -1.399   3.274  0.00  0.00    +0.000 C 
ATOM     30  C26 YJG A 701      26.148  -0.150   3.863  0.00  0.00    +0.000 C 
ATOM     31  C29 YJG A 701      27.303  -2.168   5.314  0.00  0.00    +0.000 C 
ATOM     32  C30 YJG A 701      27.131  -0.892   5.814  0.00  0.00    +0.000 C 
ATOM     33  N31 YJG A 701      26.567   0.122   5.123  0.00  0.00    +0.000 NA
ENDBRANCH  27  30
ENDBRANCH  26  27
ENDBRANCH  24  26
ENDBRANCH  23  24
ENDBRANCH   7  23
TORSDOF 8
ENDMDL
