MODEL 1
REMARK VINA RESULT:      -8.4      0.000      0.000
REMARK  Name = ligand_pdbs\YLO.pdb
REMARK  9 active torsions:
REMARK  status: ('A' for Active; 'I' for Inactive)
REMARK    1  A    between atoms: C05_5  and  O08_8
REMARK    2  A    between atoms: O08_8  and  C09_9
REMARK    3  A    between atoms: C09_9  and  C10_10
REMARK    4  A    between atoms: C10_10  and  N11_11
REMARK    5  A    between atoms: C19_19  and  S20_20
REMARK    6  A    between atoms: S20_20  and  C21_21
REMARK    7  A    between atoms: C21_21  and  C22_22
REMARK    8  A    between atoms: C22_22  and  O23_23
REMARK    9  A    between atoms: O23_23  and  C24_24
REMARK                            x       y       z     vdW  Elec       q    Type
REMARK                         _______ _______ _______ _____ _____    ______ ____
ROOT
ATOM      1  N11 YLO A1922      26.187   5.250   5.240  0.00  0.00    +0.000 N 
ATOM      2  C12 YLO A1922      25.369   4.206   4.849  0.00  0.00    +0.000 C 
ATOM      3  C13 YLO A1922      25.563   2.846   4.682  0.00  0.00    +0.000 C 
ATOM      4  C14 YLO A1922      24.574   2.002   4.274  0.00  0.00    +0.000 C 
ATOM      5  C15 YLO A1922      23.328   2.501   4.020  0.00  0.00    +0.000 C 
ATOM      6  C16 YLO A1922      23.131   3.856   4.175  0.00  0.00    +0.000 C 
ATOM      7  C17 YLO A1922      24.154   4.718   4.591  0.00  0.00    +0.000 C 
ATOM      8  N18 YLO A1922      24.209   6.085   4.811  0.00  0.00    +0.000 NA
ATOM      9  C19 YLO A1922      25.446   6.381   5.201  0.00  0.00    +0.000 C 
ENDROOT
BRANCH   1  10
ATOM     10  C10 YLO A1922      27.618   5.117   5.558  0.00  0.00    +0.000 C 
BRANCH  10  11
ATOM     11  C09 YLO A1922      28.297   3.998   6.270  0.00  0.00    +0.000 C 
BRANCH  11  12
ATOM     12  O08 YLO A1922      29.161   3.310   5.433  0.00  0.00    +0.000 OA
BRANCH  12  17
ATOM     13  C01 YLO A1922      28.006  -2.198   4.100  0.00  0.00    +0.000 C 
ATOM     14  C02 YLO A1922      28.340  -0.742   4.419  0.00  0.00    +0.000 A 
ATOM     15  C03 YLO A1922      28.352  -0.262   5.732  0.00  0.00    +0.000 A 
ATOM     16  C04 YLO A1922      28.634   1.054   6.080  0.00  0.00    +0.000 A 
ATOM     17  C05 YLO A1922      28.892   1.974   5.094  0.00  0.00    +0.000 A 
ATOM     18  C06 YLO A1922      28.884   1.498   3.766  0.00  0.00    +0.000 A 
ATOM     19  C07 YLO A1922      28.615   0.168   3.417  0.00  0.00    +0.000 A 
ENDBRANCH  12  17
ENDBRANCH  11  12
ENDBRANCH  10  11
ENDBRANCH   1  10
BRANCH   9  20
ATOM     20  S20 YLO A1922      25.929   7.969   5.551  0.00  0.00    +0.000 S 
BRANCH  20  21
ATOM     21  C21 YLO A1922      24.632   9.129   5.863  0.00  0.00    +0.000 C 
BRANCH  21  22
ATOM     22  C22 YLO A1922      24.604   9.549   7.328  0.00  0.00    +0.000 C 
BRANCH  22  23
ATOM     23  O23 YLO A1922      24.191  10.842   7.640  0.00  0.00    +0.000 OA
BRANCH  23  24
ATOM     24  C24 YLO A1922      23.829  11.185   8.926  0.00  0.00    +0.000 A 
ATOM     25  C25 YLO A1922      23.816  10.263   9.942  0.00  0.00    +0.000 A 
ATOM     26  C26 YLO A1922      23.466  10.626  11.233  0.00  0.00    +0.000 A 
ATOM     27  C27 YLO A1922      23.137  11.937  11.505  0.00  0.00    +0.000 A 
ATOM     28  C28 YLO A1922      23.146  12.859  10.496  0.00  0.00    +0.000 A 
ATOM     29  C29 YLO A1922      23.504  12.495   9.218  0.00  0.00    +0.000 A 
ENDBRANCH  23  24
ENDBRANCH  22  23
ENDBRANCH  21  22
ENDBRANCH  20  21
ENDBRANCH   9  20
TORSDOF 9
ENDMDL
MODEL 2
REMARK VINA RESULT:      -8.4      3.195      9.380
REMARK  Name = ligand_pdbs\YLO.pdb
REMARK  9 active torsions:
REMARK  status: ('A' for Active; 'I' for Inactive)
REMARK    1  A    between atoms: C05_5  and  O08_8
REMARK    2  A    between atoms: O08_8  and  C09_9
REMARK    3  A    between atoms: C09_9  and  C10_10
REMARK    4  A    between atoms: C10_10  and  N11_11
REMARK    5  A    between atoms: C19_19  and  S20_20
REMARK    6  A    between atoms: S20_20  and  C21_21
REMARK    7  A    between atoms: C21_21  and  C22_22
REMARK    8  A    between atoms: C22_22  and  O23_23
REMARK    9  A    between atoms: O23_23  and  C24_24
REMARK                            x       y       z     vdW  Elec       q    Type
REMARK                         _______ _______ _______ _____ _____    ______ ____
ROOT
ATOM      1  N11 YLO A1922      27.913   2.979   5.384  0.00  0.00    +0.000 N 
ATOM      2  C12 YLO A1922      28.987   2.212   5.796  0.00  0.00    +0.000 C 
ATOM      3  C13 YLO A1922      30.360   2.387   5.762  0.00  0.00    +0.000 C 
ATOM      4  C14 YLO A1922      31.236   1.460   6.241  0.00  0.00    +0.000 C 
ATOM      5  C15 YLO A1922      30.758   0.304   6.789  0.00  0.00    +0.000 C 
ATOM      6  C16 YLO A1922      29.393   0.120   6.818  0.00  0.00    +0.000 C 
ATOM      7  C17 YLO A1922      28.498   1.076   6.319  0.00  0.00    +0.000 C 
ATOM      8  N18 YLO A1922      27.116   1.122   6.228  0.00  0.00    +0.000 NA
ATOM      9  C19 YLO A1922      26.788   2.280   5.660  0.00  0.00    +0.000 C 
ENDROOT
BRANCH   1  10
ATOM     10  C10 YLO A1922      28.025   4.279   4.705  0.00  0.00    +0.000 C 
BRANCH  10  11
ATOM     11  C09 YLO A1922      27.718   4.597   3.281  0.00  0.00    +0.000 C 
BRANCH  11  12
ATOM     12  O08 YLO A1922      26.437   5.105   3.136  0.00  0.00    +0.000 OA
BRANCH  12  17
ATOM     13  C01 YLO A1922      24.579   9.390   6.546  0.00  0.00    +0.000 C 
ATOM     14  C02 YLO A1922      25.105   8.283   5.635  0.00  0.00    +0.000 A 
ATOM     15  C03 YLO A1922      24.241   7.456   4.909  0.00  0.00    +0.000 A 
ATOM     16  C04 YLO A1922      24.662   6.425   4.077  0.00  0.00    +0.000 A 
ATOM     17  C05 YLO A1922      26.002   6.155   3.960  0.00  0.00    +0.000 A 
ATOM     18  C06 YLO A1922      26.882   6.985   4.687  0.00  0.00    +0.000 A 
ATOM     19  C07 YLO A1922      26.458   8.034   5.514  0.00  0.00    +0.000 A 
ENDBRANCH  12  17
ENDBRANCH  11  12
ENDBRANCH  10  11
ENDBRANCH   1  10
BRANCH   9  20
ATOM     20  S20 YLO A1922      25.177   2.711   5.352  0.00  0.00    +0.000 S 
BRANCH  20  21
ATOM     21  C21 YLO A1922      24.484   2.117   3.838  0.00  0.00    +0.000 C 
BRANCH  21  22
ATOM     22  C22 YLO A1922      25.540   1.438   2.973  0.00  0.00    +0.000 C 
BRANCH  22  23
ATOM     23  O23 YLO A1922      25.717   0.062   3.099  0.00  0.00    +0.000 OA
BRANCH  23  24
ATOM     24  C24 YLO A1922      26.972  -0.485   3.261  0.00  0.00    +0.000 A 
ATOM     25  C25 YLO A1922      28.105   0.182   2.866  0.00  0.00    +0.000 A 
ATOM     26  C26 YLO A1922      29.362  -0.373   3.050  0.00  0.00    +0.000 A 
ATOM     27  C27 YLO A1922      29.479  -1.609   3.649  0.00  0.00    +0.000 A 
ATOM     28  C28 YLO A1922      28.354  -2.277   4.043  0.00  0.00    +0.000 A 
ATOM     29  C29 YLO A1922      27.108  -1.718   3.866  0.00  0.00    +0.000 A 
ENDBRANCH  23  24
ENDBRANCH  22  23
ENDBRANCH  21  22
ENDBRANCH  20  21
ENDBRANCH   9  20
TORSDOF 9
ENDMDL
MODEL 3
REMARK VINA RESULT:      -8.1      3.533      8.098
REMARK  Name = ligand_pdbs\YLO.pdb
REMARK  9 active torsions:
REMARK  status: ('A' for Active; 'I' for Inactive)
REMARK    1  A    between atoms: C05_5  and  O08_8
REMARK    2  A    between atoms: O08_8  and  C09_9
REMARK    3  A    between atoms: C09_9  and  C10_10
REMARK    4  A    between atoms: C10_10  and  N11_11
REMARK    5  A    between atoms: C19_19  and  S20_20
REMARK    6  A    between atoms: S20_20  and  C21_21
REMARK    7  A    between atoms: C21_21  and  C22_22
REMARK    8  A    between atoms: C22_22  and  O23_23
REMARK    9  A    between atoms: O23_23  and  C24_24
REMARK                            x       y       z     vdW  Elec       q    Type
REMARK                         _______ _______ _______ _____ _____    ______ ____
ROOT
ATOM      1  N11 YLO A1922      27.026   1.256   3.795  0.00  0.00    +0.000 N 
ATOM      2  C12 YLO A1922      27.605   0.001   3.762  0.00  0.00    +0.000 C 
ATOM      3  C13 YLO A1922      28.763  -0.506   3.198  0.00  0.00    +0.000 C 
ATOM      4  C14 YLO A1922      29.127  -1.814   3.305  0.00  0.00    +0.000 C 
ATOM      5  C15 YLO A1922      28.330  -2.677   4.003  0.00  0.00    +0.000 C 
ATOM      6  C16 YLO A1922      27.172  -2.181   4.558  0.00  0.00    +0.000 C 
ATOM      7  C17 YLO A1922      26.802  -0.835   4.440  0.00  0.00    +0.000 C 
ATOM      8  N18 YLO A1922      25.711  -0.110   4.891  0.00  0.00    +0.000 NA
ATOM      9  C19 YLO A1922      25.869   1.149   4.489  0.00  0.00    +0.000 C 
ENDROOT
BRANCH   1  10
ATOM     10  C10 YLO A1922      27.566   2.445   3.117  0.00  0.00    +0.000 C 
BRANCH  10  11
ATOM     11  C09 YLO A1922      26.860   3.719   2.801  0.00  0.00    +0.000 C 
BRANCH  11  12
ATOM     12  O08 YLO A1922      27.546   4.819   3.289  0.00  0.00    +0.000 OA
BRANCH  12  17
ATOM     13  C01 YLO A1922      24.763   9.022   6.122  0.00  0.00    +0.000 C 
ATOM     14  C02 YLO A1922      25.460   7.890   5.370  0.00  0.00    +0.000 A 
ATOM     15  C03 YLO A1922      26.775   7.513   5.664  0.00  0.00    +0.000 A 
ATOM     16  C04 YLO A1922      27.463   6.502   5.004  0.00  0.00    +0.000 A 
ATOM     17  C05 YLO A1922      26.854   5.830   3.975  0.00  0.00    +0.000 A 
ATOM     18  C06 YLO A1922      25.527   6.201   3.673  0.00  0.00    +0.000 A 
ATOM     19  C07 YLO A1922      24.828   7.210   4.348  0.00  0.00    +0.000 A 
ENDBRANCH  12  17
ENDBRANCH  11  12
ENDBRANCH  10  11
ENDBRANCH   1  10
BRANCH   9  20
ATOM     20  S20 YLO A1922      24.727   2.357   4.825  0.00  0.00    +0.000 S 
BRANCH  20  21
ATOM     21  C21 YLO A1922      25.195   3.561   6.031  0.00  0.00    +0.000 C 
BRANCH  21  22
ATOM     22  C22 YLO A1922      26.357   3.069   6.886  0.00  0.00    +0.000 C 
BRANCH  22  23
ATOM     23  O23 YLO A1922      27.649   3.453   6.535  0.00  0.00    +0.000 OA
BRANCH  23  24
ATOM     24  C24 YLO A1922      28.673   2.532   6.463  0.00  0.00    +0.000 A 
ATOM     25  C25 YLO A1922      28.500   1.229   6.858  0.00  0.00    +0.000 A 
ATOM     26  C26 YLO A1922      29.534   0.311   6.765  0.00  0.00    +0.000 A 
ATOM     27  C27 YLO A1922      30.752   0.707   6.256  0.00  0.00    +0.000 A 
ATOM     28  C28 YLO A1922      30.930   2.004   5.864  0.00  0.00    +0.000 A 
ATOM     29  C29 YLO A1922      29.897   2.910   5.950  0.00  0.00    +0.000 A 
ENDBRANCH  23  24
ENDBRANCH  22  23
ENDBRANCH  21  22
ENDBRANCH  20  21
ENDBRANCH   9  20
TORSDOF 9
ENDMDL
MODEL 4
REMARK VINA RESULT:      -7.8      3.602      7.345
REMARK  Name = ligand_pdbs\YLO.pdb
REMARK  9 active torsions:
REMARK  status: ('A' for Active; 'I' for Inactive)
REMARK    1  A    between atoms: C05_5  and  O08_8
REMARK    2  A    between atoms: O08_8  and  C09_9
REMARK    3  A    between atoms: C09_9  and  C10_10
REMARK    4  A    between atoms: C10_10  and  N11_11
REMARK    5  A    between atoms: C19_19  and  S20_20
REMARK    6  A    between atoms: S20_20  and  C21_21
REMARK    7  A    between atoms: C21_21  and  C22_22
REMARK    8  A    between atoms: C22_22  and  O23_23
REMARK    9  A    between atoms: O23_23  and  C24_24
REMARK                            x       y       z     vdW  Elec       q    Type
REMARK                         _______ _______ _______ _____ _____    ______ ____
ROOT
ATOM      1  N11 YLO A1922      28.326   1.118   4.267  0.00  0.00    +0.000 N 
ATOM      2  C12 YLO A1922      27.833  -0.170   4.173  0.00  0.00    +0.000 C 
ATOM      3  C13 YLO A1922      27.212  -0.888   3.165  0.00  0.00    +0.000 C 
ATOM      4  C14 YLO A1922      26.805  -2.179   3.320  0.00  0.00    +0.000 C 
ATOM      5  C15 YLO A1922      27.015  -2.810   4.513  0.00  0.00    +0.000 C 
ATOM      6  C16 YLO A1922      27.623  -2.098   5.523  0.00  0.00    +0.000 C 
ATOM      7  C17 YLO A1922      28.035  -0.769   5.357  0.00  0.00    +0.000 C 
ATOM      8  N18 YLO A1922      28.648   0.143   6.201  0.00  0.00    +0.000 NA
ATOM      9  C19 YLO A1922      28.812   1.275   5.519  0.00  0.00    +0.000 C 
ENDROOT
BRANCH   1  10
ATOM     10  C10 YLO A1922      28.246   2.125   3.196  0.00  0.00    +0.000 C 
BRANCH  10  11
ATOM     11  C09 YLO A1922      27.274   3.247   3.066  0.00  0.00    +0.000 C 
BRANCH  11  12
ATOM     12  O08 YLO A1922      27.882   4.476   3.266  0.00  0.00    +0.000 OA
BRANCH  12  17
ATOM     13  C01 YLO A1922      24.963   8.856   5.661  0.00  0.00    +0.000 C 
ATOM     14  C02 YLO A1922      25.695   7.681   5.016  0.00  0.00    +0.000 A 
ATOM     15  C03 YLO A1922      26.881   7.170   5.555  0.00  0.00    +0.000 A 
ATOM     16  C04 YLO A1922      27.597   6.113   5.004  0.00  0.00    +0.000 A 
ATOM     17  C05 YLO A1922      27.157   5.532   3.841  0.00  0.00    +0.000 A 
ATOM     18  C06 YLO A1922      25.960   6.039   3.292  0.00  0.00    +0.000 A 
ATOM     19  C07 YLO A1922      25.231   7.094   3.856  0.00  0.00    +0.000 A 
ENDBRANCH  12  17
ENDBRANCH  11  12
ENDBRANCH  10  11
ENDBRANCH   1  10
BRANCH   9  20
ATOM     20  S20 YLO A1922      29.514   2.655   6.212  0.00  0.00    +0.000 S 
BRANCH  20  21
ATOM     21  C21 YLO A1922      28.401   3.818   6.940  0.00  0.00    +0.000 C 
BRANCH  21  22
ATOM     22  C22 YLO A1922      27.064   3.168   7.282  0.00  0.00    +0.000 C 
BRANCH  22  23
ATOM     23  O23 YLO A1922      25.894   3.876   7.017  0.00  0.00    +0.000 OA
BRANCH  23  24
ATOM     24  C24 YLO A1922      25.057   3.512   5.984  0.00  0.00    +0.000 A 
ATOM     25  C25 YLO A1922      25.141   2.279   5.389  0.00  0.00    +0.000 A 
ATOM     26  C26 YLO A1922      24.282   1.920   4.362  0.00  0.00    +0.000 A 
ATOM     27  C27 YLO A1922      23.318   2.810   3.940  0.00  0.00    +0.000 A 
ATOM     28  C28 YLO A1922      23.231   4.041   4.529  0.00  0.00    +0.000 A 
ATOM     29  C29 YLO A1922      24.081   4.388   5.554  0.00  0.00    +0.000 A 
ENDBRANCH  23  24
ENDBRANCH  22  23
ENDBRANCH  21  22
ENDBRANCH  20  21
ENDBRANCH   9  20
TORSDOF 9
ENDMDL
MODEL 5
REMARK VINA RESULT:      -7.4      1.615      3.140
REMARK  Name = ligand_pdbs\YLO.pdb
REMARK  9 active torsions:
REMARK  status: ('A' for Active; 'I' for Inactive)
REMARK    1  A    between atoms: C05_5  and  O08_8
REMARK    2  A    between atoms: O08_8  and  C09_9
REMARK    3  A    between atoms: C09_9  and  C10_10
REMARK    4  A    between atoms: C10_10  and  N11_11
REMARK    5  A    between atoms: C19_19  and  S20_20
REMARK    6  A    between atoms: S20_20  and  C21_21
REMARK    7  A    between atoms: C21_21  and  C22_22
REMARK    8  A    between atoms: C22_22  and  O23_23
REMARK    9  A    between atoms: O23_23  and  C24_24
REMARK                            x       y       z     vdW  Elec       q    Type
REMARK                         _______ _______ _______ _____ _____    ______ ____
ROOT
ATOM      1  N11 YLO A1922      25.797   4.073   5.230  0.00  0.00    +0.000 N 
ATOM      2  C12 YLO A1922      26.917   3.401   5.681  0.00  0.00    +0.000 C 
ATOM      3  C13 YLO A1922      27.174   2.083   6.020  0.00  0.00    +0.000 C 
ATOM      4  C14 YLO A1922      28.392   1.654   6.453  0.00  0.00    +0.000 C 
ATOM      5  C15 YLO A1922      29.420   2.547   6.557  0.00  0.00    +0.000 C 
ATOM      6  C16 YLO A1922      29.169   3.862   6.231  0.00  0.00    +0.000 C 
ATOM      7  C17 YLO A1922      27.912   4.296   5.791  0.00  0.00    +0.000 C 
ATOM      8  N18 YLO A1922      27.416   5.535   5.418  0.00  0.00    +0.000 NA
ATOM      9  C19 YLO A1922      26.138   5.374   5.084  0.00  0.00    +0.000 C 
ENDROOT
BRANCH   1  10
ATOM     10  C10 YLO A1922      24.475   3.458   5.032  0.00  0.00    +0.000 C 
BRANCH  10  11
ATOM     11  C09 YLO A1922      24.142   2.239   4.242  0.00  0.00    +0.000 C 
BRANCH  11  12
ATOM     12  O08 YLO A1922      25.045   2.035   3.211  0.00  0.00    +0.000 OA
BRANCH  12  17
ATOM     13  C01 YLO A1922      28.997  -2.170   3.592  0.00  0.00    +0.000 C 
ATOM     14  C02 YLO A1922      27.922  -1.090   3.485  0.00  0.00    +0.000 A 
ATOM     15  C03 YLO A1922      28.189   0.158   2.912  0.00  0.00    +0.000 A 
ATOM     16  C04 YLO A1922      27.255   1.182   2.801  0.00  0.00    +0.000 A 
ATOM     17  C05 YLO A1922      25.991   1.001   3.302  0.00  0.00    +0.000 A 
ATOM     18  C06 YLO A1922      25.711  -0.256   3.879  0.00  0.00    +0.000 A 
ATOM     19  C07 YLO A1922      26.647  -1.293   3.977  0.00  0.00    +0.000 A 
ENDBRANCH  12  17
ENDBRANCH  11  12
ENDBRANCH  10  11
ENDBRANCH   1  10
BRANCH   9  20
ATOM     20  S20 YLO A1922      25.163   6.669   4.586  0.00  0.00    +0.000 S 
BRANCH  20  21
ATOM     21  C21 YLO A1922      25.702   8.283   5.064  0.00  0.00    +0.000 C 
BRANCH  21  22
ATOM     22  C22 YLO A1922      25.090   8.700   6.397  0.00  0.00    +0.000 C 
BRANCH  22  23
ATOM     23  O23 YLO A1922      24.214   9.782   6.417  0.00  0.00    +0.000 OA
BRANCH  23  24
ATOM     24  C24 YLO A1922      24.076  10.568   7.541  0.00  0.00    +0.000 A 
ATOM     25  C25 YLO A1922      24.239  10.056   8.804  0.00  0.00    +0.000 A 
ATOM     26  C26 YLO A1922      24.113  10.862   9.925  0.00  0.00    +0.000 A 
ATOM     27  C27 YLO A1922      23.831  12.202   9.770  0.00  0.00    +0.000 A 
ATOM     28  C28 YLO A1922      23.666  12.717   8.515  0.00  0.00    +0.000 A 
ATOM     29  C29 YLO A1922      23.802  11.914   7.405  0.00  0.00    +0.000 A 
ENDBRANCH  23  24
ENDBRANCH  22  23
ENDBRANCH  21  22
ENDBRANCH  20  21
ENDBRANCH   9  20
TORSDOF 9
ENDMDL
MODEL 6
REMARK VINA RESULT:      -7.0      4.196      9.105
REMARK  Name = ligand_pdbs\YLO.pdb
REMARK  9 active torsions:
REMARK  status: ('A' for Active; 'I' for Inactive)
REMARK    1  A    between atoms: C05_5  and  O08_8
REMARK    2  A    between atoms: O08_8  and  C09_9
REMARK    3  A    between atoms: C09_9  and  C10_10
REMARK    4  A    between atoms: C10_10  and  N11_11
REMARK    5  A    between atoms: C19_19  and  S20_20
REMARK    6  A    between atoms: S20_20  and  C21_21
REMARK    7  A    between atoms: C21_21  and  C22_22
REMARK    8  A    between atoms: C22_22  and  O23_23
REMARK    9  A    between atoms: O23_23  and  C24_24
REMARK                            x       y       z     vdW  Elec       q    Type
REMARK                         _______ _______ _______ _____ _____    ______ ____
ROOT
ATOM      1  N11 YLO A1922      27.125   2.429   5.458  0.00  0.00    +0.000 N 
ATOM      2  C12 YLO A1922      26.357   1.899   4.438  0.00  0.00    +0.000 C 
ATOM      3  C13 YLO A1922      25.024   1.544   4.325  0.00  0.00    +0.000 C 
ATOM      4  C14 YLO A1922      24.490   1.027   3.184  0.00  0.00    +0.000 C 
ATOM      5  C15 YLO A1922      25.288   0.850   2.090  0.00  0.00    +0.000 C 
ATOM      6  C16 YLO A1922      26.617   1.192   2.198  0.00  0.00    +0.000 C 
ATOM      7  C17 YLO A1922      27.161   1.720   3.377  0.00  0.00    +0.000 C 
ATOM      8  N18 YLO A1922      28.437   2.127   3.731  0.00  0.00    +0.000 NA
ATOM      9  C19 YLO A1922      28.389   2.550   4.992  0.00  0.00    +0.000 C 
ENDROOT
BRANCH   1  10
ATOM     10  C10 YLO A1922      26.630   2.720   6.813  0.00  0.00    +0.000 C 
BRANCH  10  11
ATOM     11  C09 YLO A1922      25.456   3.554   7.199  0.00  0.00    +0.000 C 
BRANCH  11  12
ATOM     12  O08 YLO A1922      24.773   4.021   6.088  0.00  0.00    +0.000 OA
BRANCH  12  17
ATOM     13  C01 YLO A1922      26.088   9.162   3.789  0.00  0.00    +0.000 C 
ATOM     14  C02 YLO A1922      25.783   7.791   4.391  0.00  0.00    +0.000 A 
ATOM     15  C03 YLO A1922      24.549   7.162   4.197  0.00  0.00    +0.000 A 
ATOM     16  C04 YLO A1922      24.211   5.924   4.731  0.00  0.00    +0.000 A 
ATOM     17  C05 YLO A1922      25.111   5.264   5.529  0.00  0.00    +0.000 A 
ATOM     18  C06 YLO A1922      26.360   5.889   5.728  0.00  0.00    +0.000 A 
ATOM     19  C07 YLO A1922      26.706   7.130   5.177  0.00  0.00    +0.000 A 
ENDBRANCH  12  17
ENDBRANCH  11  12
ENDBRANCH  10  11
ENDBRANCH   1  10
BRANCH   9  20
ATOM     20  S20 YLO A1922      29.764   3.115   5.809  0.00  0.00    +0.000 S 
BRANCH  20  21
ATOM     21  C21 YLO A1922      30.860   1.882   6.443  0.00  0.00    +0.000 C 
BRANCH  21  22
ATOM     22  C22 YLO A1922      30.182   0.518   6.508  0.00  0.00    +0.000 C 
BRANCH  22  23
ATOM     23  O23 YLO A1922      30.241  -0.307   5.387  0.00  0.00    +0.000 OA
BRANCH  23  24
ATOM     24  C24 YLO A1922      29.118  -0.954   4.917  0.00  0.00    +0.000 A 
ATOM     25  C25 YLO A1922      27.977  -1.058   5.672  0.00  0.00    +0.000 A 
ATOM     26  C26 YLO A1922      26.849  -1.697   5.180  0.00  0.00    +0.000 A 
ATOM     27  C27 YLO A1922      26.868  -2.225   3.907  0.00  0.00    +0.000 A 
ATOM     28  C28 YLO A1922      28.003  -2.125   3.151  0.00  0.00    +0.000 A 
ATOM     29  C29 YLO A1922      29.117  -1.481   3.641  0.00  0.00    +0.000 A 
ENDBRANCH  23  24
ENDBRANCH  22  23
ENDBRANCH  21  22
ENDBRANCH  20  21
ENDBRANCH   9  20
TORSDOF 9
ENDMDL
MODEL 7
REMARK VINA RESULT:      -6.8      4.278      5.896
REMARK  Name = ligand_pdbs\YLO.pdb
REMARK  9 active torsions:
REMARK  status: ('A' for Active; 'I' for Inactive)
REMARK    1  A    between atoms: C05_5  and  O08_8
REMARK    2  A    between atoms: O08_8  and  C09_9
REMARK    3  A    between atoms: C09_9  and  C10_10
REMARK    4  A    between atoms: C10_10  and  N11_11
REMARK    5  A    between atoms: C19_19  and  S20_20
REMARK    6  A    between atoms: S20_20  and  C21_21
REMARK    7  A    between atoms: C21_21  and  C22_22
REMARK    8  A    between atoms: C22_22  and  O23_23
REMARK    9  A    between atoms: O23_23  and  C24_24
REMARK                            x       y       z     vdW  Elec       q    Type
REMARK                         _______ _______ _______ _____ _____    ______ ____
ROOT
ATOM      1  N11 YLO A1922      26.443   1.974   5.654  0.00  0.00    +0.000 N 
ATOM      2  C12 YLO A1922      27.804   1.904   5.885  0.00  0.00    +0.000 C 
ATOM      3  C13 YLO A1922      28.786   0.983   5.559  0.00  0.00    +0.000 C 
ATOM      4  C14 YLO A1922      30.092   1.140   5.910  0.00  0.00    +0.000 C 
ATOM      5  C15 YLO A1922      30.471   2.251   6.610  0.00  0.00    +0.000 C 
ATOM      6  C16 YLO A1922      29.497   3.165   6.946  0.00  0.00    +0.000 C 
ATOM      7  C17 YLO A1922      28.154   2.995   6.584  0.00  0.00    +0.000 C 
ATOM      8  N18 YLO A1922      27.012   3.749   6.802  0.00  0.00    +0.000 NA
ATOM      9  C19 YLO A1922      25.993   3.112   6.232  0.00  0.00    +0.000 C 
ENDROOT
BRANCH   1  10
ATOM     10  C10 YLO A1922      25.656   0.938   4.965  0.00  0.00    +0.000 C 
BRANCH  10  11
ATOM     11  C09 YLO A1922      25.253   0.896   3.531  0.00  0.00    +0.000 C 
BRANCH  11  12
ATOM     12  O08 YLO A1922      25.601  -0.306   2.938  0.00  0.00    +0.000 OA
BRANCH  12  17
ATOM     13  C01 YLO A1922      30.927  -2.418   3.721  0.00  0.00    +0.000 C 
ATOM     14  C02 YLO A1922      29.505  -1.901   3.514  0.00  0.00    +0.000 A 
ATOM     15  C03 YLO A1922      29.240  -0.767   2.740  0.00  0.00    +0.000 A 
ATOM     16  C04 YLO A1922      27.969  -0.244   2.530  0.00  0.00    +0.000 A 
ATOM     17  C05 YLO A1922      26.887  -0.837   3.129  0.00  0.00    +0.000 A 
ATOM     18  C06 YLO A1922      27.143  -1.984   3.910  0.00  0.00    +0.000 A 
ATOM     19  C07 YLO A1922      28.422  -2.519   4.109  0.00  0.00    +0.000 A 
ENDBRANCH  12  17
ENDBRANCH  11  12
ENDBRANCH  10  11
ENDBRANCH   1  10
BRANCH   9  20
ATOM     20  S20 YLO A1922      24.406   3.705   6.294  0.00  0.00    +0.000 S 
BRANCH  20  21
ATOM     21  C21 YLO A1922      23.593   3.930   4.741  0.00  0.00    +0.000 C 
BRANCH  21  22
ATOM     22  C22 YLO A1922      23.265   5.398   4.493  0.00  0.00    +0.000 C 
BRANCH  22  23
ATOM     23  O23 YLO A1922      24.195   6.181   3.813  0.00  0.00    +0.000 OA
BRANCH  23  24
ATOM     24  C24 YLO A1922      25.550   5.990   3.983  0.00  0.00    +0.000 A 
ATOM     25  C25 YLO A1922      26.250   5.081   3.230  0.00  0.00    +0.000 A 
ATOM     26  C26 YLO A1922      27.615   4.912   3.400  0.00  0.00    +0.000 A 
ATOM     27  C27 YLO A1922      28.285   5.677   4.331  0.00  0.00    +0.000 A 
ATOM     28  C28 YLO A1922      27.592   6.583   5.085  0.00  0.00    +0.000 A 
ATOM     29  C29 YLO A1922      26.237   6.753   4.905  0.00  0.00    +0.000 A 
ENDBRANCH  23  24
ENDBRANCH  22  23
ENDBRANCH  21  22
ENDBRANCH  20  21
ENDBRANCH   9  20
TORSDOF 9
ENDMDL
MODEL 8
REMARK VINA RESULT:      -6.7      4.195      5.956
REMARK  Name = ligand_pdbs\YLO.pdb
REMARK  9 active torsions:
REMARK  status: ('A' for Active; 'I' for Inactive)
REMARK    1  A    between atoms: C05_5  and  O08_8
REMARK    2  A    between atoms: O08_8  and  C09_9
REMARK    3  A    between atoms: C09_9  and  C10_10
REMARK    4  A    between atoms: C10_10  and  N11_11
REMARK    5  A    between atoms: C19_19  and  S20_20
REMARK    6  A    between atoms: S20_20  and  C21_21
REMARK    7  A    between atoms: C21_21  and  C22_22
REMARK    8  A    between atoms: C22_22  and  O23_23
REMARK    9  A    between atoms: O23_23  and  C24_24
REMARK                            x       y       z     vdW  Elec       q    Type
REMARK                         _______ _______ _______ _____ _____    ______ ____
ROOT
ATOM      1  N11 YLO A1922      27.159   1.060   3.232  0.00  0.00    +0.000 N 
ATOM      2  C12 YLO A1922      28.001  -0.030   3.349  0.00  0.00    +0.000 C 
ATOM      3  C13 YLO A1922      29.372  -0.197   3.259  0.00  0.00    +0.000 C 
ATOM      4  C14 YLO A1922      29.983  -1.405   3.414  0.00  0.00    +0.000 C 
ATOM      5  C15 YLO A1922      29.225  -2.511   3.677  0.00  0.00    +0.000 C 
ATOM      6  C16 YLO A1922      27.859  -2.353   3.758  0.00  0.00    +0.000 C 
ATOM      7  C17 YLO A1922      27.238  -1.108   3.593  0.00  0.00    +0.000 C 
ATOM      8  N18 YLO A1922      25.915  -0.700   3.621  0.00  0.00    +0.000 NA
ATOM      9  C19 YLO A1922      25.893   0.612   3.399  0.00  0.00    +0.000 C 
ENDROOT
BRANCH   1  10
ATOM     10  C10 YLO A1922      27.599   2.426   2.906  0.00  0.00    +0.000 C 
BRANCH  10  11
ATOM     11  C09 YLO A1922      27.606   3.621   3.796  0.00  0.00    +0.000 C 
BRANCH  11  12
ATOM     12  O08 YLO A1922      27.602   3.263   5.134  0.00  0.00    +0.000 OA
BRANCH  12  17
ATOM     13  C01 YLO A1922      31.891   0.016   7.257  0.00  0.00    +0.000 C 
ATOM     14  C02 YLO A1922      30.735   0.837   6.689  0.00  0.00    +0.000 A 
ATOM     15  C03 YLO A1922      30.956   2.016   5.968  0.00  0.00    +0.000 A 
ATOM     16  C04 YLO A1922      29.943   2.809   5.441  0.00  0.00    +0.000 A 
ATOM     17  C05 YLO A1922      28.633   2.458   5.647  0.00  0.00    +0.000 A 
ATOM     18  C06 YLO A1922      28.401   1.269   6.370  0.00  0.00    +0.000 A 
ATOM     19  C07 YLO A1922      29.421   0.462   6.889  0.00  0.00    +0.000 A 
ENDBRANCH  12  17
ENDBRANCH  11  12
ENDBRANCH  10  11
ENDBRANCH   1  10
BRANCH   9  20
ATOM     20  S20 YLO A1922      24.446   1.495   3.334  0.00  0.00    +0.000 S 
BRANCH  20  21
ATOM     21  C21 YLO A1922      23.891   2.200   4.857  0.00  0.00    +0.000 C 
BRANCH  21  22
ATOM     22  C22 YLO A1922      23.761   3.715   4.753  0.00  0.00    +0.000 C 
BRANCH  22  23
ATOM     23  O23 YLO A1922      24.628   4.509   5.500  0.00  0.00    +0.000 OA
BRANCH  23  24
ATOM     24  C24 YLO A1922      25.067   5.728   5.027  0.00  0.00    +0.000 A 
ATOM     25  C25 YLO A1922      24.486   6.332   3.941  0.00  0.00    +0.000 A 
ATOM     26  C26 YLO A1922      24.927   7.565   3.487  0.00  0.00    +0.000 A 
ATOM     27  C27 YLO A1922      25.958   8.202   4.143  0.00  0.00    +0.000 A 
ATOM     28  C28 YLO A1922      26.542   7.604   5.225  0.00  0.00    +0.000 A 
ATOM     29  C29 YLO A1922      26.093   6.383   5.677  0.00  0.00    +0.000 A 
ENDBRANCH  23  24
ENDBRANCH  22  23
ENDBRANCH  21  22
ENDBRANCH  20  21
ENDBRANCH   9  20
TORSDOF 9
ENDMDL
MODEL 9
REMARK VINA RESULT:      -6.5      4.061      8.173
REMARK  Name = ligand_pdbs\YLO.pdb
REMARK  9 active torsions:
REMARK  status: ('A' for Active; 'I' for Inactive)
REMARK    1  A    between atoms: C05_5  and  O08_8
REMARK    2  A    between atoms: O08_8  and  C09_9
REMARK    3  A    between atoms: C09_9  and  C10_10
REMARK    4  A    between atoms: C10_10  and  N11_11
REMARK    5  A    between atoms: C19_19  and  S20_20
REMARK    6  A    between atoms: S20_20  and  C21_21
REMARK    7  A    between atoms: C21_21  and  C22_22
REMARK    8  A    between atoms: C22_22  and  O23_23
REMARK    9  A    between atoms: O23_23  and  C24_24
REMARK                            x       y       z     vdW  Elec       q    Type
REMARK                         _______ _______ _______ _____ _____    ______ ____
ROOT
ATOM      1  N11 YLO A1922      25.553   4.639   5.467  0.00  0.00    +0.000 N 
ATOM      2  C12 YLO A1922      25.746   5.963   5.122  0.00  0.00    +0.000 C 
ATOM      3  C13 YLO A1922      26.629   6.945   5.540  0.00  0.00    +0.000 C 
ATOM      4  C14 YLO A1922      26.621   8.210   5.038  0.00  0.00    +0.000 C 
ATOM      5  C15 YLO A1922      25.712   8.543   4.073  0.00  0.00    +0.000 C 
ATOM      6  C16 YLO A1922      24.825   7.574   3.659  0.00  0.00    +0.000 C 
ATOM      7  C17 YLO A1922      24.838   6.275   4.184  0.00  0.00    +0.000 C 
ATOM      8  N18 YLO A1922      24.065   5.150   3.945  0.00  0.00    +0.000 NA
ATOM      9  C19 YLO A1922      24.516   4.176   4.732  0.00  0.00    +0.000 C 
ENDROOT
BRANCH   1  10
ATOM     10  C10 YLO A1922      26.312   3.926   6.507  0.00  0.00    +0.000 C 
BRANCH  10  11
ATOM     11  C09 YLO A1922      26.331   2.462   6.785  0.00  0.00    +0.000 C 
BRANCH  11  12
ATOM     12  O08 YLO A1922      27.046   1.768   5.822  0.00  0.00    +0.000 OA
BRANCH  12  17
ATOM     13  C01 YLO A1922      32.644   0.615   6.703  0.00  0.00    +0.000 C 
ATOM     14  C02 YLO A1922      31.158   0.876   6.465  0.00  0.00    +0.000 A 
ATOM     15  C03 YLO A1922      30.711   2.019   5.793  0.00  0.00    +0.000 A 
ATOM     16  C04 YLO A1922      29.372   2.315   5.562  0.00  0.00    +0.000 A 
ATOM     17  C05 YLO A1922      28.401   1.469   6.035  0.00  0.00    +0.000 A 
ATOM     18  C06 YLO A1922      28.842   0.312   6.711  0.00  0.00    +0.000 A 
ATOM     19  C07 YLO A1922      30.192   0.006   6.931  0.00  0.00    +0.000 A 
ENDBRANCH  12  17
ENDBRANCH  11  12
ENDBRANCH  10  11
ENDBRANCH   1  10
BRANCH   9  20
ATOM     20  S20 YLO A1922      23.815   2.632   4.752  0.00  0.00    +0.000 S 
BRANCH  20  21
ATOM     21  C21 YLO A1922      24.356   1.512   3.497  0.00  0.00    +0.000 C 
BRANCH  21  22
ATOM     22  C22 YLO A1922      25.807   1.771   3.109  0.00  0.00    +0.000 C 
BRANCH  22  23
ATOM     23  O23 YLO A1922      26.469   0.819   2.337  0.00  0.00    +0.000 OA
BRANCH  23  24
ATOM     24  C24 YLO A1922      27.265  -0.145   2.918  0.00  0.00    +0.000 A 
ATOM     25  C25 YLO A1922      26.728  -1.198   3.616  0.00  0.00    +0.000 A 
ATOM     26  C26 YLO A1922      27.539  -2.169   4.181  0.00  0.00    +0.000 A 
ATOM     27  C27 YLO A1922      28.907  -2.086   4.029  0.00  0.00    +0.000 A 
ATOM     28  C28 YLO A1922      29.446  -1.039   3.335  0.00  0.00    +0.000 A 
ATOM     29  C29 YLO A1922      28.635  -0.082   2.769  0.00  0.00    +0.000 A 
ENDBRANCH  23  24
ENDBRANCH  22  23
ENDBRANCH  21  22
ENDBRANCH  20  21
ENDBRANCH   9  20
TORSDOF 9
ENDMDL
