MODEL 1
REMARK VINA RESULT:      -8.1      0.000      0.000
REMARK  Name = ligand_pdbs\YLQ.pdb
REMARK  8 active torsions:
REMARK  status: ('A' for Active; 'I' for Inactive)
REMARK    1  A    between atoms: C05_5  and  O06_6
REMARK    2  A    between atoms: O06_6  and  C07_7
REMARK    3  A    between atoms: C07_7  and  C08_8
REMARK    4  A    between atoms: C08_8  and  N09_9
REMARK    5  A    between atoms: C10_10  and  S11_11
REMARK    6  A    between atoms: S11_11  and  C12_12
REMARK    7  A    between atoms: C12_12  and  C13_13
REMARK    8  A    between atoms: C13_13  and  C14_14
REMARK                            x       y       z     vdW  Elec       q    Type
REMARK                         _______ _______ _______ _____ _____    ______ ____
ROOT
ATOM      1  N09 YLQ A1922      25.725   3.718   5.139  0.00  0.00    +0.000 N 
ATOM      2  C10 YLQ A1922      26.974   3.601   5.668  0.00  0.00    +0.000 C 
ATOM      3  N17 YLQ A1922      27.585   4.789   5.749  0.00  0.00    +0.000 NA
ATOM      4  C18 YLQ A1922      26.709   5.719   5.258  0.00  0.00    +0.000 C 
ATOM      5  C19 YLQ A1922      26.829   7.114   5.114  0.00  0.00    +0.000 C 
ATOM      6  C20 YLQ A1922      25.752   7.791   4.578  0.00  0.00    +0.000 C 
ATOM      7  C21 YLQ A1922      24.587   7.146   4.210  0.00  0.00    +0.000 C 
ATOM      8  C22 YLQ A1922      24.455   5.752   4.353  0.00  0.00    +0.000 C 
ATOM      9  C23 YLQ A1922      25.545   5.057   4.880  0.00  0.00    +0.000 C 
ENDROOT
BRANCH   1  10
ATOM     10  C08 YLQ A1922      24.744   2.616   4.917  0.00  0.00    +0.000 C 
BRANCH  10  11
ATOM     11  C07 YLQ A1922      24.703   1.865   3.640  0.00  0.00    +0.000 C 
BRANCH  11  12
ATOM     12  O06 YLQ A1922      24.852   0.489   3.739  0.00  0.00    +0.000 OA
BRANCH  12  17
ATOM     13  C01 YLQ A1922      29.954  -2.023   3.692  0.00  0.00    +0.000 C 
ATOM     14  C02 YLQ A1922      28.610  -1.383   3.722  0.00  0.00    +0.000 A 
ATOM     15  C03 YLQ A1922      27.715  -1.706   4.700  0.00  0.00    +0.000 A 
ATOM     16  C04 YLQ A1922      26.423  -1.063   4.722  0.00  0.00    +0.000 A 
ATOM     17  C05 YLQ A1922      26.071  -0.117   3.731  0.00  0.00    +0.000 A 
ATOM     18  C24 YLQ A1922      26.997   0.208   2.731  0.00  0.00    +0.000 A 
ATOM     19  C25 YLQ A1922      28.248  -0.411   2.718  0.00  0.00    +0.000 A 
ENDBRANCH  12  17
ENDBRANCH  11  12
ENDBRANCH  10  11
ENDBRANCH   1  10
BRANCH   2  20
ATOM     20  S11 YLQ A1922      27.709   2.094   6.130  0.00  0.00    +0.000 S 
BRANCH  20  21
ATOM     21  C12 YLQ A1922      29.240   2.084   5.150  0.00  0.00    +0.000 C 
BRANCH  21  22
ATOM     22  C13 YLQ A1922      30.563   1.907   5.781  0.00  0.00    +0.000 C 
BRANCH  22  23
ATOM     23  C14 YLQ A1922      30.871   0.683   6.571  0.00  0.00    +0.000 C 
ATOM     24  O15 YLQ A1922      32.043   0.371   6.837  0.00  0.00    +0.000 OA
ATOM     25  O16 YLQ A1922      29.901  -0.036   6.988  0.00  0.00    +0.000 OA
ENDBRANCH  22  23
ENDBRANCH  21  22
ENDBRANCH  20  21
ENDBRANCH   2  20
TORSDOF 8
ENDMDL
MODEL 2
REMARK VINA RESULT:      -8.0      2.494      4.646
REMARK  Name = ligand_pdbs\YLQ.pdb
REMARK  8 active torsions:
REMARK  status: ('A' for Active; 'I' for Inactive)
REMARK    1  A    between atoms: C05_5  and  O06_6
REMARK    2  A    between atoms: O06_6  and  C07_7
REMARK    3  A    between atoms: C07_7  and  C08_8
REMARK    4  A    between atoms: C08_8  and  N09_9
REMARK    5  A    between atoms: C10_10  and  S11_11
REMARK    6  A    between atoms: S11_11  and  C12_12
REMARK    7  A    between atoms: C12_12  and  C13_13
REMARK    8  A    between atoms: C13_13  and  C14_14
REMARK                            x       y       z     vdW  Elec       q    Type
REMARK                         _______ _______ _______ _____ _____    ______ ____
ROOT
ATOM      1  N09 YLQ A1922      26.412   3.030   4.427  0.00  0.00    +0.000 N 
ATOM      2  C10 YLQ A1922      25.842   3.750   5.432  0.00  0.00    +0.000 C 
ATOM      3  N17 YLQ A1922      26.689   3.918   6.456  0.00  0.00    +0.000 NA
ATOM      4  C18 YLQ A1922      27.854   3.288   6.112  0.00  0.00    +0.000 C 
ATOM      5  C19 YLQ A1922      29.071   3.154   6.808  0.00  0.00    +0.000 C 
ATOM      6  C20 YLQ A1922      30.083   2.451   6.186  0.00  0.00    +0.000 C 
ATOM      7  C21 YLQ A1922      29.933   1.908   4.923  0.00  0.00    +0.000 C 
ATOM      8  C22 YLQ A1922      28.723   2.040   4.218  0.00  0.00    +0.000 C 
ATOM      9  C23 YLQ A1922      27.689   2.737   4.845  0.00  0.00    +0.000 C 
ENDROOT
BRANCH   1  10
ATOM     10  C08 YLQ A1922      25.781   2.665   3.124  0.00  0.00    +0.000 C 
BRANCH  10  11
ATOM     11  C07 YLQ A1922      24.895   1.483   3.001  0.00  0.00    +0.000 C 
BRANCH  11  12
ATOM     12  O06 YLQ A1922      25.141   0.445   3.888  0.00  0.00    +0.000 OA
BRANCH  12  17
ATOM     13  C01 YLQ A1922      29.820  -2.778   3.626  0.00  0.00    +0.000 C 
ATOM     14  C02 YLQ A1922      28.602  -1.922   3.672  0.00  0.00    +0.000 A 
ATOM     15  C03 YLQ A1922      28.210  -1.223   2.568  0.00  0.00    +0.000 A 
ATOM     16  C04 YLQ A1922      27.017  -0.412   2.626  0.00  0.00    +0.000 A 
ATOM     17  C05 YLQ A1922      26.263  -0.324   3.821  0.00  0.00    +0.000 A 
ATOM     18  C24 YLQ A1922      26.674  -1.046   4.949  0.00  0.00    +0.000 A 
ATOM     19  C25 YLQ A1922      27.824  -1.834   4.885  0.00  0.00    +0.000 A 
ENDBRANCH  12  17
ENDBRANCH  11  12
ENDBRANCH  10  11
ENDBRANCH   1  10
BRANCH   2  20
ATOM     20  S11 YLQ A1922      24.203   4.333   5.419  0.00  0.00    +0.000 S 
BRANCH  20  21
ATOM     21  C12 YLQ A1922      24.319   5.813   4.369  0.00  0.00    +0.000 C 
BRANCH  21  22
ATOM     22  C13 YLQ A1922      25.618   6.441   4.055  0.00  0.00    +0.000 C 
BRANCH  22  23
ATOM     23  C14 YLQ A1922      26.333   7.260   5.072  0.00  0.00    +0.000 C 
ATOM     24  O15 YLQ A1922      27.536   7.073   5.314  0.00  0.00    +0.000 OA
ATOM     25  O16 YLQ A1922      25.686   8.177   5.683  0.00  0.00    +0.000 OA
ENDBRANCH  22  23
ENDBRANCH  21  22
ENDBRANCH  20  21
ENDBRANCH   2  20
TORSDOF 8
ENDMDL
MODEL 3
REMARK VINA RESULT:      -7.8      2.528      5.209
REMARK  Name = ligand_pdbs\YLQ.pdb
REMARK  8 active torsions:
REMARK  status: ('A' for Active; 'I' for Inactive)
REMARK    1  A    between atoms: C05_5  and  O06_6
REMARK    2  A    between atoms: O06_6  and  C07_7
REMARK    3  A    between atoms: C07_7  and  C08_8
REMARK    4  A    between atoms: C08_8  and  N09_9
REMARK    5  A    between atoms: C10_10  and  S11_11
REMARK    6  A    between atoms: S11_11  and  C12_12
REMARK    7  A    between atoms: C12_12  and  C13_13
REMARK    8  A    between atoms: C13_13  and  C14_14
REMARK                            x       y       z     vdW  Elec       q    Type
REMARK                         _______ _______ _______ _____ _____    ______ ____
ROOT
ATOM      1  N09 YLQ A1922      27.083   2.441   5.286  0.00  0.00    +0.000 N 
ATOM      2  C10 YLQ A1922      27.567   3.642   4.867  0.00  0.00    +0.000 C 
ATOM      3  N17 YLQ A1922      28.885   3.741   5.081  0.00  0.00    +0.000 NA
ATOM      4  C18 YLQ A1922      29.281   2.566   5.658  0.00  0.00    +0.000 C 
ATOM      5  C19 YLQ A1922      30.550   2.130   6.085  0.00  0.00    +0.000 C 
ATOM      6  C20 YLQ A1922      30.634   0.867   6.637  0.00  0.00    +0.000 C 
ATOM      7  C21 YLQ A1922      29.531   0.042   6.757  0.00  0.00    +0.000 C 
ATOM      8  C22 YLQ A1922      28.260   0.468   6.331  0.00  0.00    +0.000 C 
ATOM      9  C23 YLQ A1922      28.162   1.748   5.784  0.00  0.00    +0.000 C 
ENDROOT
BRANCH   1  10
ATOM     10  C08 YLQ A1922      25.671   1.965   5.191  0.00  0.00    +0.000 C 
BRANCH  10  11
ATOM     11  C07 YLQ A1922      25.057   1.632   3.884  0.00  0.00    +0.000 C 
BRANCH  11  12
ATOM     12  O06 YLQ A1922      25.108   0.297   3.511  0.00  0.00    +0.000 OA
BRANCH  12  17
ATOM     13  C01 YLQ A1922      29.960  -2.670   3.509  0.00  0.00    +0.000 C 
ATOM     14  C02 YLQ A1922      28.677  -1.914   3.520  0.00  0.00    +0.000 A 
ATOM     15  C03 YLQ A1922      27.617  -2.369   4.248  0.00  0.00    +0.000 A 
ATOM     16  C04 YLQ A1922      26.386  -1.614   4.261  0.00  0.00    +0.000 A 
ATOM     17  C05 YLQ A1922      26.267  -0.418   3.513  0.00  0.00    +0.000 A 
ATOM     18  C24 YLQ A1922      27.362   0.040   2.769  0.00  0.00    +0.000 A 
ATOM     19  C25 YLQ A1922      28.552  -0.690   2.766  0.00  0.00    +0.000 A 
ENDBRANCH  12  17
ENDBRANCH  11  12
ENDBRANCH  10  11
ENDBRANCH   1  10
BRANCH   2  20
ATOM     20  S11 YLQ A1922      26.591   4.913   4.190  0.00  0.00    +0.000 S 
BRANCH  20  21
ATOM     21  C12 YLQ A1922      27.221   6.391   5.042  0.00  0.00    +0.000 C 
BRANCH  21  22
ATOM     22  C13 YLQ A1922      26.573   7.709   4.889  0.00  0.00    +0.000 C 
BRANCH  22  23
ATOM     23  C14 YLQ A1922      25.176   7.927   5.354  0.00  0.00    +0.000 C 
ATOM     24  O15 YLQ A1922      24.249   7.200   4.961  0.00  0.00    +0.000 OA
ATOM     25  O16 YLQ A1922      24.948   8.871   6.184  0.00  0.00    +0.000 OA
ENDBRANCH  22  23
ENDBRANCH  21  22
ENDBRANCH  20  21
ENDBRANCH   2  20
TORSDOF 8
ENDMDL
MODEL 4
REMARK VINA RESULT:      -7.1      2.228      5.619
REMARK  Name = ligand_pdbs\YLQ.pdb
REMARK  8 active torsions:
REMARK  status: ('A' for Active; 'I' for Inactive)
REMARK    1  A    between atoms: C05_5  and  O06_6
REMARK    2  A    between atoms: O06_6  and  C07_7
REMARK    3  A    between atoms: C07_7  and  C08_8
REMARK    4  A    between atoms: C08_8  and  N09_9
REMARK    5  A    between atoms: C10_10  and  S11_11
REMARK    6  A    between atoms: S11_11  and  C12_12
REMARK    7  A    between atoms: C12_12  and  C13_13
REMARK    8  A    between atoms: C13_13  and  C14_14
REMARK                            x       y       z     vdW  Elec       q    Type
REMARK                         _______ _______ _______ _____ _____    ______ ____
ROOT
ATOM      1  N09 YLQ A1922      27.718   1.282   4.691  0.00  0.00    +0.000 N 
ATOM      2  C10 YLQ A1922      28.031   0.694   3.504  0.00  0.00    +0.000 C 
ATOM      3  N17 YLQ A1922      26.977   0.667   2.678  0.00  0.00    +0.000 NA
ATOM      4  C18 YLQ A1922      25.938   1.258   3.343  0.00  0.00    +0.000 C 
ATOM      5  C19 YLQ A1922      24.608   1.500   2.949  0.00  0.00    +0.000 C 
ATOM      6  C20 YLQ A1922      23.782   2.130   3.857  0.00  0.00    +0.000 C 
ATOM      7  C21 YLQ A1922      24.229   2.532   5.103  0.00  0.00    +0.000 C 
ATOM      8  C22 YLQ A1922      25.556   2.298   5.505  0.00  0.00    +0.000 C 
ATOM      9  C23 YLQ A1922      26.395   1.648   4.598  0.00  0.00    +0.000 C 
ENDROOT
BRANCH   1  10
ATOM     10  C08 YLQ A1922      28.639   1.508   5.844  0.00  0.00    +0.000 C 
BRANCH  10  11
ATOM     11  C07 YLQ A1922      29.120   2.867   6.190  0.00  0.00    +0.000 C 
BRANCH  11  12
ATOM     12  O06 YLQ A1922      29.178   3.776   5.144  0.00  0.00    +0.000 OA
BRANCH  12  17
ATOM     13  C01 YLQ A1922      24.729   6.973   3.618  0.00  0.00    +0.000 C 
ATOM     14  C02 YLQ A1922      25.896   6.149   4.040  0.00  0.00    +0.000 A 
ATOM     15  C03 YLQ A1922      26.304   6.151   5.342  0.00  0.00    +0.000 A 
ATOM     16  C04 YLQ A1922      27.426   5.333   5.736  0.00  0.00    +0.000 A 
ATOM     17  C05 YLQ A1922      28.114   4.545   4.783  0.00  0.00    +0.000 A 
ATOM     18  C24 YLQ A1922      27.686   4.550   3.449  0.00  0.00    +0.000 A 
ATOM     19  C25 YLQ A1922      26.596   5.337   3.074  0.00  0.00    +0.000 A 
ENDBRANCH  12  17
ENDBRANCH  11  12
ENDBRANCH  10  11
ENDBRANCH   1  10
BRANCH   2  20
ATOM     20  S11 YLQ A1922      29.584   0.011   3.123  0.00  0.00    +0.000 S 
BRANCH  20  21
ATOM     21  C12 YLQ A1922      29.529  -1.595   3.973  0.00  0.00    +0.000 C 
BRANCH  21  22
ATOM     22  C13 YLQ A1922      28.426  -2.552   3.752  0.00  0.00    +0.000 C 
BRANCH  22  23
ATOM     23  C14 YLQ A1922      27.210  -2.522   4.611  0.00  0.00    +0.000 C 
ATOM     24  O15 YLQ A1922      27.169  -1.825   5.637  0.00  0.00    +0.000 OA
ATOM     25  O16 YLQ A1922      26.197  -3.217   4.261  0.00  0.00    +0.000 OA
ENDBRANCH  22  23
ENDBRANCH  21  22
ENDBRANCH  20  21
ENDBRANCH   2  20
TORSDOF 8
ENDMDL
MODEL 5
REMARK VINA RESULT:      -6.6      1.631      3.706
REMARK  Name = ligand_pdbs\YLQ.pdb
REMARK  8 active torsions:
REMARK  status: ('A' for Active; 'I' for Inactive)
REMARK    1  A    between atoms: C05_5  and  O06_6
REMARK    2  A    between atoms: O06_6  and  C07_7
REMARK    3  A    between atoms: C07_7  and  C08_8
REMARK    4  A    between atoms: C08_8  and  N09_9
REMARK    5  A    between atoms: C10_10  and  S11_11
REMARK    6  A    between atoms: S11_11  and  C12_12
REMARK    7  A    between atoms: C12_12  and  C13_13
REMARK    8  A    between atoms: C13_13  and  C14_14
REMARK                            x       y       z     vdW  Elec       q    Type
REMARK                         _______ _______ _______ _____ _____    ______ ____
ROOT
ATOM      1  N09 YLQ A1922      25.953   4.003   5.111  0.00  0.00    +0.000 N 
ATOM      2  C10 YLQ A1922      24.691   3.696   4.705  0.00  0.00    +0.000 C 
ATOM      3  N17 YLQ A1922      24.004   4.795   4.367  0.00  0.00    +0.000 NA
ATOM      4  C18 YLQ A1922      24.843   5.859   4.556  0.00  0.00    +0.000 C 
ATOM      5  C19 YLQ A1922      24.645   7.239   4.355  0.00  0.00    +0.000 C 
ATOM      6  C20 YLQ A1922      25.702   8.079   4.639  0.00  0.00    +0.000 C 
ATOM      7  C21 YLQ A1922      26.921   7.604   5.086  0.00  0.00    +0.000 C 
ATOM      8  C22 YLQ A1922      27.131   6.227   5.286  0.00  0.00    +0.000 C 
ATOM      9  C23 YLQ A1922      26.063   5.371   5.016  0.00  0.00    +0.000 C 
ENDROOT
BRANCH   1  10
ATOM     10  C08 YLQ A1922      27.009   3.040   5.541  0.00  0.00    +0.000 C 
BRANCH  10  11
ATOM     11  C07 YLQ A1922      28.194   3.489   6.312  0.00  0.00    +0.000 C 
BRANCH  11  12
ATOM     12  O06 YLQ A1922      29.405   2.912   5.955  0.00  0.00    +0.000 OA
BRANCH  12  17
ATOM     13  C01 YLQ A1922      29.738  -2.236   3.561  0.00  0.00    +0.000 C 
ATOM     14  C02 YLQ A1922      29.657  -0.877   4.165  0.00  0.00    +0.000 A 
ATOM     15  C03 YLQ A1922      29.605   0.229   3.367  0.00  0.00    +0.000 A 
ATOM     16  C04 YLQ A1922      29.510   1.537   3.969  0.00  0.00    +0.000 A 
ATOM     17  C05 YLQ A1922      29.486   1.683   5.377  0.00  0.00    +0.000 A 
ATOM     18  C24 YLQ A1922      29.540   0.541   6.187  0.00  0.00    +0.000 A 
ATOM     19  C25 YLQ A1922      29.625  -0.722   5.600  0.00  0.00    +0.000 A 
ENDBRANCH  12  17
ENDBRANCH  11  12
ENDBRANCH  10  11
ENDBRANCH   1  10
BRANCH   2  20
ATOM     20  S11 YLQ A1922      24.028   2.088   4.679  0.00  0.00    +0.000 S 
BRANCH  20  21
ATOM     21  C12 YLQ A1922      24.699   1.409   3.131  0.00  0.00    +0.000 C 
BRANCH  21  22
ATOM     22  C13 YLQ A1922      25.973   0.664   3.100  0.00  0.00    +0.000 C 
BRANCH  22  23
ATOM     23  C14 YLQ A1922      26.203  -0.488   4.015  0.00  0.00    +0.000 C 
ATOM     24  O15 YLQ A1922      26.185  -0.340   5.248  0.00  0.00    +0.000 OA
ATOM     25  O16 YLQ A1922      26.402  -1.643   3.506  0.00  0.00    +0.000 OA
ENDBRANCH  22  23
ENDBRANCH  21  22
ENDBRANCH  20  21
ENDBRANCH   2  20
TORSDOF 8
ENDMDL
MODEL 6
REMARK VINA RESULT:      -6.5      2.115      5.371
REMARK  Name = ligand_pdbs\YLQ.pdb
REMARK  8 active torsions:
REMARK  status: ('A' for Active; 'I' for Inactive)
REMARK    1  A    between atoms: C05_5  and  O06_6
REMARK    2  A    between atoms: O06_6  and  C07_7
REMARK    3  A    between atoms: C07_7  and  C08_8
REMARK    4  A    between atoms: C08_8  and  N09_9
REMARK    5  A    between atoms: C10_10  and  S11_11
REMARK    6  A    between atoms: S11_11  and  C12_12
REMARK    7  A    between atoms: C12_12  and  C13_13
REMARK    8  A    between atoms: C13_13  and  C14_14
REMARK                            x       y       z     vdW  Elec       q    Type
REMARK                         _______ _______ _______ _____ _____    ______ ____
ROOT
ATOM      1  N09 YLQ A1922      26.947   3.153   5.087  0.00  0.00    +0.000 N 
ATOM      2  C10 YLQ A1922      26.909   4.163   4.175  0.00  0.00    +0.000 C 
ATOM      3  N17 YLQ A1922      26.404   3.749   3.006  0.00  0.00    +0.000 NA
ATOM      4  C18 YLQ A1922      26.098   2.424   3.155  0.00  0.00    +0.000 C 
ATOM      5  C19 YLQ A1922      25.540   1.498   2.252  0.00  0.00    +0.000 C 
ATOM      6  C20 YLQ A1922      25.345   0.209   2.706  0.00  0.00    +0.000 C 
ATOM      7  C21 YLQ A1922      25.661  -0.173   3.996  0.00  0.00    +0.000 C 
ATOM      8  C22 YLQ A1922      26.216   0.745   4.907  0.00  0.00    +0.000 C 
ATOM      9  C23 YLQ A1922      26.430   2.047   4.453  0.00  0.00    +0.000 C 
ENDROOT
BRANCH   1  10
ATOM     10  C08 YLQ A1922      27.424   3.244   6.498  0.00  0.00    +0.000 C 
BRANCH  10  11
ATOM     11  C07 YLQ A1922      28.795   3.707   6.820  0.00  0.00    +0.000 C 
BRANCH  11  12
ATOM     12  O06 YLQ A1922      29.803   2.763   6.680  0.00  0.00    +0.000 OA
BRANCH  12  17
ATOM     13  C01 YLQ A1922      29.138  -1.976   3.609  0.00  0.00    +0.000 C 
ATOM     14  C02 YLQ A1922      29.324  -0.724   4.393  0.00  0.00    +0.000 A 
ATOM     15  C03 YLQ A1922      29.674   0.435   3.764  0.00  0.00    +0.000 A 
ATOM     16  C04 YLQ A1922      29.834   1.644   4.538  0.00  0.00    +0.000 A 
ATOM     17  C05 YLQ A1922      29.647   1.631   5.941  0.00  0.00    +0.000 A 
ATOM     18  C24 YLQ A1922      29.288   0.435   6.576  0.00  0.00    +0.000 A 
ATOM     19  C25 YLQ A1922      29.127  -0.728   5.823  0.00  0.00    +0.000 A 
ENDBRANCH  12  17
ENDBRANCH  11  12
ENDBRANCH  10  11
ENDBRANCH   1  10
BRANCH   2  20
ATOM     20  S11 YLQ A1922      27.494   5.775   4.467  0.00  0.00    +0.000 S 
BRANCH  20  21
ATOM     21  C12 YLQ A1922      26.019   6.620   5.112  0.00  0.00    +0.000 C 
BRANCH  21  22
ATOM     22  C13 YLQ A1922      24.675   6.366   4.556  0.00  0.00    +0.000 C 
BRANCH  22  23
ATOM     23  C14 YLQ A1922      23.924   5.131   4.916  0.00  0.00    +0.000 C 
ATOM     24  O15 YLQ A1922      23.048   4.673   4.164  0.00  0.00    +0.000 OA
ATOM     25  O16 YLQ A1922      24.212   4.538   6.010  0.00  0.00    +0.000 OA
ENDBRANCH  22  23
ENDBRANCH  21  22
ENDBRANCH  20  21
ENDBRANCH   2  20
TORSDOF 8
ENDMDL
MODEL 7
REMARK VINA RESULT:      -6.5      2.472      5.209
REMARK  Name = ligand_pdbs\YLQ.pdb
REMARK  8 active torsions:
REMARK  status: ('A' for Active; 'I' for Inactive)
REMARK    1  A    between atoms: C05_5  and  O06_6
REMARK    2  A    between atoms: O06_6  and  C07_7
REMARK    3  A    between atoms: C07_7  and  C08_8
REMARK    4  A    between atoms: C08_8  and  N09_9
REMARK    5  A    between atoms: C10_10  and  S11_11
REMARK    6  A    between atoms: S11_11  and  C12_12
REMARK    7  A    between atoms: C12_12  and  C13_13
REMARK    8  A    between atoms: C13_13  and  C14_14
REMARK                            x       y       z     vdW  Elec       q    Type
REMARK                         _______ _______ _______ _____ _____    ______ ____
ROOT
ATOM      1  N09 YLQ A1922      27.579   3.011   4.664  0.00  0.00    +0.000 N 
ATOM      2  C10 YLQ A1922      26.825   3.857   5.419  0.00  0.00    +0.000 C 
ATOM      3  N17 YLQ A1922      25.516   3.652   5.224  0.00  0.00    +0.000 NA
ATOM      4  C18 YLQ A1922      25.406   2.638   4.313  0.00  0.00    +0.000 C 
ATOM      5  C19 YLQ A1922      24.272   2.018   3.753  0.00  0.00    +0.000 C 
ATOM      6  C20 YLQ A1922      24.488   1.002   2.845  0.00  0.00    +0.000 C 
ATOM      7  C21 YLQ A1922      25.759   0.582   2.498  0.00  0.00    +0.000 C 
ATOM      8  C22 YLQ A1922      26.898   1.192   3.054  0.00  0.00    +0.000 C 
ATOM      9  C23 YLQ A1922      26.690   2.230   3.963  0.00  0.00    +0.000 C 
ENDROOT
BRANCH   1  10
ATOM     10  C08 YLQ A1922      29.070   2.933   4.634  0.00  0.00    +0.000 C 
BRANCH  10  11
ATOM     11  C07 YLQ A1922      29.833   2.341   5.758  0.00  0.00    +0.000 C 
BRANCH  11  12
ATOM     12  O06 YLQ A1922      30.252   1.030   5.584  0.00  0.00    +0.000 OA
BRANCH  12  17
ATOM     13  C01 YLQ A1922      26.678  -3.181   4.228  0.00  0.00    +0.000 C 
ATOM     14  C02 YLQ A1922      27.596  -2.068   4.599  0.00  0.00    +0.000 A 
ATOM     15  C03 YLQ A1922      27.333  -1.295   5.692  0.00  0.00    +0.000 A 
ATOM     16  C04 YLQ A1922      28.243  -0.232   6.047  0.00  0.00    +0.000 A 
ATOM     17  C05 YLQ A1922      29.393   0.024   5.263  0.00  0.00    +0.000 A 
ATOM     18  C24 YLQ A1922      29.654  -0.775   4.142  0.00  0.00    +0.000 A 
ATOM     19  C25 YLQ A1922      28.775  -1.807   3.808  0.00  0.00    +0.000 A 
ENDBRANCH  12  17
ENDBRANCH  11  12
ENDBRANCH  10  11
ENDBRANCH   1  10
BRANCH   2  20
ATOM     20  S11 YLQ A1922      27.474   5.087   6.463  0.00  0.00    +0.000 S 
BRANCH  20  21
ATOM     21  C12 YLQ A1922      27.648   6.507   5.341  0.00  0.00    +0.000 C 
BRANCH  21  22
ATOM     22  C13 YLQ A1922      26.545   6.937   4.458  0.00  0.00    +0.000 C 
BRANCH  22  23
ATOM     23  C14 YLQ A1922      25.237   7.363   5.027  0.00  0.00    +0.000 C 
ATOM     24  O15 YLQ A1922      24.195   6.737   4.776  0.00  0.00    +0.000 OA
ATOM     25  O16 YLQ A1922      25.209   8.381   5.799  0.00  0.00    +0.000 OA
ENDBRANCH  22  23
ENDBRANCH  21  22
ENDBRANCH  20  21
ENDBRANCH   2  20
TORSDOF 8
ENDMDL
MODEL 8
REMARK VINA RESULT:      -6.4      1.779      6.264
REMARK  Name = ligand_pdbs\YLQ.pdb
REMARK  8 active torsions:
REMARK  status: ('A' for Active; 'I' for Inactive)
REMARK    1  A    between atoms: C05_5  and  O06_6
REMARK    2  A    between atoms: O06_6  and  C07_7
REMARK    3  A    between atoms: C07_7  and  C08_8
REMARK    4  A    between atoms: C08_8  and  N09_9
REMARK    5  A    between atoms: C10_10  and  S11_11
REMARK    6  A    between atoms: S11_11  and  C12_12
REMARK    7  A    between atoms: C12_12  and  C13_13
REMARK    8  A    between atoms: C13_13  and  C14_14
REMARK                            x       y       z     vdW  Elec       q    Type
REMARK                         _______ _______ _______ _____ _____    ______ ____
ROOT
ATOM      1  N09 YLQ A1922      26.722   1.022   4.466  0.00  0.00    +0.000 N 
ATOM      2  C10 YLQ A1922      27.624   1.718   3.722  0.00  0.00    +0.000 C 
ATOM      3  N17 YLQ A1922      28.544   0.907   3.184  0.00  0.00    +0.000 NA
ATOM      4  C18 YLQ A1922      28.236  -0.363   3.586  0.00  0.00    +0.000 C 
ATOM      5  C19 YLQ A1922      28.861  -1.596   3.314  0.00  0.00    +0.000 C 
ATOM      6  C20 YLQ A1922      28.303  -2.727   3.873  0.00  0.00    +0.000 C 
ATOM      7  C21 YLQ A1922      27.165  -2.676   4.657  0.00  0.00    +0.000 C 
ATOM      8  C22 YLQ A1922      26.531  -1.451   4.933  0.00  0.00    +0.000 C 
ATOM      9  C23 YLQ A1922      27.097  -0.299   4.384  0.00  0.00    +0.000 C 
ENDROOT
BRANCH   1  10
ATOM     10  C08 YLQ A1922      25.547   1.583   5.196  0.00  0.00    +0.000 C 
BRANCH  10  11
ATOM     11  C07 YLQ A1922      24.465   2.299   4.480  0.00  0.00    +0.000 C 
BRANCH  11  12
ATOM     12  O06 YLQ A1922      23.934   3.404   5.129  0.00  0.00    +0.000 OA
BRANCH  12  17
ATOM     13  C01 YLQ A1922      26.087   8.633   4.524  0.00  0.00    +0.000 C 
ATOM     14  C02 YLQ A1922      25.544   7.257   4.698  0.00  0.00    +0.000 A 
ATOM     15  C03 YLQ A1922      26.033   6.443   5.678  0.00  0.00    +0.000 A 
ATOM     16  C04 YLQ A1922      25.482   5.119   5.842  0.00  0.00    +0.000 A 
ATOM     17  C05 YLQ A1922      24.454   4.654   4.987  0.00  0.00    +0.000 A 
ATOM     18  C24 YLQ A1922      23.960   5.498   3.984  0.00  0.00    +0.000 A 
ATOM     19  C25 YLQ A1922      24.490   6.781   3.834  0.00  0.00    +0.000 A 
ENDBRANCH  12  17
ENDBRANCH  11  12
ENDBRANCH  10  11
ENDBRANCH   1  10
BRANCH   2  20
ATOM     20  S11 YLQ A1922      27.621   3.447   3.535  0.00  0.00    +0.000 S 
BRANCH  20  21
ATOM     21  C12 YLQ A1922      28.552   4.004   4.994  0.00  0.00    +0.000 C 
BRANCH  21  22
ATOM     22  C13 YLQ A1922      28.736   3.136   6.174  0.00  0.00    +0.000 C 
BRANCH  22  23
ATOM     23  C14 YLQ A1922      29.814   2.109   6.203  0.00  0.00    +0.000 C 
ATOM     24  O15 YLQ A1922      29.611   0.981   6.681  0.00  0.00    +0.000 OA
ATOM     25  O16 YLQ A1922      30.953   2.405   5.707  0.00  0.00    +0.000 OA
ENDBRANCH  22  23
ENDBRANCH  21  22
ENDBRANCH  20  21
ENDBRANCH   2  20
TORSDOF 8
ENDMDL
MODEL 9
REMARK VINA RESULT:      -6.2      2.557      6.291
REMARK  Name = ligand_pdbs\YLQ.pdb
REMARK  8 active torsions:
REMARK  status: ('A' for Active; 'I' for Inactive)
REMARK    1  A    between atoms: C05_5  and  O06_6
REMARK    2  A    between atoms: O06_6  and  C07_7
REMARK    3  A    between atoms: C07_7  and  C08_8
REMARK    4  A    between atoms: C08_8  and  N09_9
REMARK    5  A    between atoms: C10_10  and  S11_11
REMARK    6  A    between atoms: S11_11  and  C12_12
REMARK    7  A    between atoms: C12_12  and  C13_13
REMARK    8  A    between atoms: C13_13  and  C14_14
REMARK                            x       y       z     vdW  Elec       q    Type
REMARK                         _______ _______ _______ _____ _____    ______ ____
ROOT
ATOM      1  N09 YLQ A1922      26.994   1.388   3.387  0.00  0.00    +0.000 N 
ATOM      2  C10 YLQ A1922      25.772   0.929   3.773  0.00  0.00    +0.000 C 
ATOM      3  N17 YLQ A1922      25.798  -0.388   4.017  0.00  0.00    +0.000 NA
ATOM      4  C18 YLQ A1922      27.079  -0.807   3.784  0.00  0.00    +0.000 C 
ATOM      5  C19 YLQ A1922      27.666  -2.083   3.888  0.00  0.00    +0.000 C 
ATOM      6  C20 YLQ A1922      29.008  -2.191   3.584  0.00  0.00    +0.000 C 
ATOM      7  C21 YLQ A1922      29.767  -1.098   3.207  0.00  0.00    +0.000 C 
ATOM      8  C22 YLQ A1922      29.191   0.181   3.104  0.00  0.00    +0.000 C 
ATOM      9  C23 YLQ A1922      27.832   0.297   3.396  0.00  0.00    +0.000 C 
ENDROOT
BRANCH   1  10
ATOM     10  C08 YLQ A1922      27.351   2.799   3.055  0.00  0.00    +0.000 C 
BRANCH  10  11
ATOM     11  C07 YLQ A1922      27.628   3.795   4.117  0.00  0.00    +0.000 C 
BRANCH  11  12
ATOM     12  O06 YLQ A1922      27.724   3.295   5.408  0.00  0.00    +0.000 OA
BRANCH  12  17
ATOM     13  C01 YLQ A1922      32.050   0.006   7.086  0.00  0.00    +0.000 C 
ATOM     14  C02 YLQ A1922      30.901   0.847   6.651  0.00  0.00    +0.000 A 
ATOM     15  C03 YLQ A1922      29.621   0.454   6.915  0.00  0.00    +0.000 A 
ATOM     16  C04 YLQ A1922      28.520   1.290   6.500  0.00  0.00    +0.000 A 
ATOM     17  C05 YLQ A1922      28.756   2.503   5.810  0.00  0.00    +0.000 A 
ATOM     18  C24 YLQ A1922      30.074   2.898   5.545  0.00  0.00    +0.000 A 
ATOM     19  C25 YLQ A1922      31.135   2.090   5.954  0.00  0.00    +0.000 A 
ENDBRANCH  12  17
ENDBRANCH  11  12
ENDBRANCH  10  11
ENDBRANCH   1  10
BRANCH   2  20
ATOM     20  S11 YLQ A1922      24.341   1.911   3.884  0.00  0.00    +0.000 S 
BRANCH  20  21
ATOM     21  C12 YLQ A1922      24.474   2.616   5.554  0.00  0.00    +0.000 C 
BRANCH  21  22
ATOM     22  C13 YLQ A1922      24.435   4.074   5.786  0.00  0.00    +0.000 C 
BRANCH  22  23
ATOM     23  C14 YLQ A1922      23.908   4.996   4.742  0.00  0.00    +0.000 C 
ATOM     24  O15 YLQ A1922      22.746   4.888   4.320  0.00  0.00    +0.000 OA
ATOM     25  O16 YLQ A1922      24.674   5.918   4.298  0.00  0.00    +0.000 OA
ENDBRANCH  22  23
ENDBRANCH  21  22
ENDBRANCH  20  21
ENDBRANCH   2  20
TORSDOF 8
ENDMDL
