MODEL 1
REMARK VINA RESULT:      -8.7      0.000      0.000
REMARK  Name = ligand_pdbs\ZK5_A_1918 .pdb
REMARK  2 active torsions:
REMARK  status: ('A' for Active; 'I' for Inactive)
REMARK    1  A    between atoms: C17_17  and  C20_20
REMARK    2  A    between atoms: C20_20  and  C21_21
REMARK                            x       y       z     vdW  Elec       q    Type
REMARK                         _______ _______ _______ _____ _____    ______ ____
ROOT
ATOM      1  C2  ZK5 A1918      27.410   6.967   5.133  0.00  0.00    +0.000 C 
ATOM      2  C3  ZK5 A1918      25.998   7.186   4.667  0.00  0.00    +0.000 C 
ATOM      3  C4  ZK5 A1918      25.051   6.057   4.784  0.00  0.00    +0.000 C 
ATOM      4  C5  ZK5 A1918      25.399   4.827   5.153  0.00  0.00    +0.000 C 
ATOM      5  C6  ZK5 A1918      24.358   3.756   5.277  0.00  0.00    +0.000 C 
ATOM      6  C7  ZK5 A1918      24.732   2.527   4.412  0.00  0.00    +0.000 C 
ATOM      7  C1  ZK5 A1918      27.841   5.522   4.985  0.00  0.00    +0.000 C 
ATOM      8  C8  ZK5 A1918      26.116   2.001   4.790  0.00  0.00    +0.000 C 
ATOM      9  C9  ZK5 A1918      27.184   3.120   4.728  0.00  0.00    +0.000 C 
ATOM     10  C10 ZK5 A1918      26.838   4.430   5.470  0.00  0.00    +0.000 C 
ATOM     11  C11 ZK5 A1918      28.650   2.669   4.892  0.00  0.00    +0.000 C 
ATOM     12  C12 ZK5 A1918      29.001   1.351   4.161  0.00  0.00    +0.000 C 
ATOM     13  C13 ZK5 A1918      27.933   0.250   4.314  0.00  0.00    +0.000 C 
ATOM     14  C14 ZK5 A1918      26.577   0.858   3.906  0.00  0.00    +0.000 C 
ATOM     15  C15 ZK5 A1918      25.613  -0.343   3.807  0.00  0.00    +0.000 C 
ATOM     16  C16 ZK5 A1918      26.547  -1.495   3.384  0.00  0.00    +0.000 C 
ATOM     17  C17 ZK5 A1918      27.990  -0.920   3.307  0.00  0.00    +0.000 C 
ATOM     18  C18 ZK5 A1918      27.931  -0.249   5.780  0.00  0.00    +0.000 C 
ATOM     19  C19 ZK5 A1918      26.978   4.257   7.004  0.00  0.00    +0.000 C 
ATOM     20  F9  ZK5 A1918      27.156   3.445   3.315  0.00  0.00    +0.000 F 
ATOM     21  O1  ZK5 A1918      25.638   8.265   4.202  0.00  0.00    +0.000 OA
ATOM     22  O2  ZK5 A1918      28.939   2.590   6.264  0.00  0.00    +0.000 OA
ATOM     23  O3  ZK5 A1918      28.304  -0.386   2.029  0.00  0.00    +0.000 OA
ENDROOT
BRANCH  17  24
ATOM     24  C20 ZK5 A1918      29.069  -1.967   3.634  0.00  0.00    +0.000 C 
ATOM     25  O4  ZK5 A1918      28.776  -3.063   4.015  0.00  0.00    +0.000 OA
BRANCH  24  26
ATOM     26  C21 ZK5 A1918      30.505  -1.567   3.451  0.00  0.00    +0.000 C 
ATOM     27  O5  ZK5 A1918      31.397  -2.612   3.842  0.00  0.00    +0.000 OA
ENDBRANCH  24  26
ENDBRANCH  17  24
TORSDOF 2
ENDMDL
MODEL 2
REMARK VINA RESULT:      -8.0      1.628      7.134
REMARK  Name = ligand_pdbs\ZK5_A_1918 .pdb
REMARK  2 active torsions:
REMARK  status: ('A' for Active; 'I' for Inactive)
REMARK    1  A    between atoms: C17_17  and  C20_20
REMARK    2  A    between atoms: C20_20  and  C21_21
REMARK                            x       y       z     vdW  Elec       q    Type
REMARK                         _______ _______ _______ _____ _____    ______ ____
ROOT
ATOM      1  C2  ZK5 A1918      28.054  -2.200   2.972  0.00  0.00    +0.000 C 
ATOM      2  C3  ZK5 A1918      29.432  -2.254   3.568  0.00  0.00    +0.000 C 
ATOM      3  C4  ZK5 A1918      29.715  -1.383   4.729  0.00  0.00    +0.000 C 
ATOM      4  C5  ZK5 A1918      28.872  -0.468   5.198  0.00  0.00    +0.000 C 
ATOM      5  C6  ZK5 A1918      29.235   0.342   6.405  0.00  0.00    +0.000 C 
ATOM      6  C7  ZK5 A1918      29.141   1.857   6.097  0.00  0.00    +0.000 C 
ATOM      7  C1  ZK5 A1918      27.408  -0.840   3.150  0.00  0.00    +0.000 C 
ATOM      8  C8  ZK5 A1918      27.747   2.219   5.586  0.00  0.00    +0.000 C 
ATOM      9  C9  ZK5 A1918      27.339   1.339   4.379  0.00  0.00    +0.000 C 
ATOM     10  C10 ZK5 A1918      27.513  -0.185   4.562  0.00  0.00    +0.000 C 
ATOM     11  C11 ZK5 A1918      26.041   1.744   3.651  0.00  0.00    +0.000 C 
ATOM     12  C12 ZK5 A1918      25.855   3.270   3.475  0.00  0.00    +0.000 C 
ATOM     13  C13 ZK5 A1918      26.210   4.090   4.731  0.00  0.00    +0.000 C 
ATOM     14  C14 ZK5 A1918      27.627   3.673   5.173  0.00  0.00    +0.000 C 
ATOM     15  C15 ZK5 A1918      28.035   4.709   6.241  0.00  0.00    +0.000 C 
ATOM     16  C16 ZK5 A1918      27.282   5.977   5.790  0.00  0.00    +0.000 C 
ATOM     17  C17 ZK5 A1918      26.452   5.603   4.530  0.00  0.00    +0.000 C 
ATOM     18  C18 ZK5 A1918      25.153   3.816   5.828  0.00  0.00    +0.000 C 
ATOM     19  C19 ZK5 A1918      26.406  -0.769   5.476  0.00  0.00    +0.000 C 
ATOM     20  F9  ZK5 A1918      28.334   1.738   3.403  0.00  0.00    +0.000 F 
ATOM     21  O1  ZK5 A1918      30.300  -2.992   3.108  0.00  0.00    +0.000 OA
ATOM     22  O2  ZK5 A1918      24.955   1.167   4.327  0.00  0.00    +0.000 OA
ATOM     23  O3  ZK5 A1918      27.176   5.775   3.320  0.00  0.00    +0.000 OA
ENDROOT
BRANCH  17  24
ATOM     24  C20 ZK5 A1918      25.158   6.425   4.399  0.00  0.00    +0.000 C 
ATOM     25  O4  ZK5 A1918      24.220   6.014   3.780  0.00  0.00    +0.000 OA
BRANCH  24  26
ATOM     26  C21 ZK5 A1918      25.111   7.761   5.083  0.00  0.00    +0.000 C 
ATOM     27  O5  ZK5 A1918      25.939   8.720   4.423  0.00  0.00    +0.000 OA
ENDBRANCH  24  26
ENDBRANCH  17  24
TORSDOF 2
ENDMDL
MODEL 3
REMARK VINA RESULT:      -7.2      1.729      2.913
REMARK  Name = ligand_pdbs\ZK5_A_1918 .pdb
REMARK  2 active torsions:
REMARK  status: ('A' for Active; 'I' for Inactive)
REMARK    1  A    between atoms: C17_17  and  C20_20
REMARK    2  A    between atoms: C20_20  and  C21_21
REMARK                            x       y       z     vdW  Elec       q    Type
REMARK                         _______ _______ _______ _____ _____    ______ ____
ROOT
ATOM      1  C2  ZK5 A1918      24.561   6.712   3.962  0.00  0.00    +0.000 C 
ATOM      2  C3  ZK5 A1918      25.202   7.365   5.154  0.00  0.00    +0.000 C 
ATOM      3  C4  ZK5 A1918      26.510   6.843   5.605  0.00  0.00    +0.000 C 
ATOM      4  C5  ZK5 A1918      27.091   5.756   5.106  0.00  0.00    +0.000 C 
ATOM      5  C6  ZK5 A1918      28.437   5.325   5.604  0.00  0.00    +0.000 C 
ATOM      6  C7  ZK5 A1918      28.394   3.858   6.100  0.00  0.00    +0.000 C 
ATOM      7  C1  ZK5 A1918      24.943   5.251   3.838  0.00  0.00    +0.000 C 
ATOM      8  C8  ZK5 A1918      27.889   2.929   4.997  0.00  0.00    +0.000 C 
ATOM      9  C9  ZK5 A1918      26.530   3.408   4.431  0.00  0.00    +0.000 C 
ATOM     10  C10 ZK5 A1918      26.451   4.895   4.020  0.00  0.00    +0.000 C 
ATOM     11  C11 ZK5 A1918      25.824   2.444   3.455  0.00  0.00    +0.000 C 
ATOM     12  C12 ZK5 A1918      25.908   0.952   3.855  0.00  0.00    +0.000 C 
ATOM     13  C13 ZK5 A1918      27.303   0.516   4.345  0.00  0.00    +0.000 C 
ATOM     14  C14 ZK5 A1918      27.732   1.494   5.457  0.00  0.00    +0.000 C 
ATOM     15  C15 ZK5 A1918      28.982   0.853   6.095  0.00  0.00    +0.000 C 
ATOM     16  C16 ZK5 A1918      28.725  -0.656   5.906  0.00  0.00    +0.000 C 
ATOM     17  C17 ZK5 A1918      27.381  -0.807   5.139  0.00  0.00    +0.000 C 
ATOM     18  C18 ZK5 A1918      28.285   0.529   3.148  0.00  0.00    +0.000 C 
ATOM     19  C19 ZK5 A1918      27.197   5.146   2.684  0.00  0.00    +0.000 C 
ATOM     20  F9  ZK5 A1918      25.686   3.275   5.603  0.00  0.00    +0.000 F 
ATOM     21  O1  ZK5 A1918      24.662   8.300   5.739  0.00  0.00    +0.000 OA
ATOM     22  O2  ZK5 A1918      26.337   2.663   2.167  0.00  0.00    +0.000 OA
ATOM     23  O3  ZK5 A1918      26.256  -0.868   6.003  0.00  0.00    +0.000 OA
ENDROOT
BRANCH  17  24
ATOM     24  C20 ZK5 A1918      27.336  -2.065   4.253  0.00  0.00    +0.000 C 
ATOM     25  O4  ZK5 A1918      26.521  -2.922   4.433  0.00  0.00    +0.000 OA
BRANCH  24  26
ATOM     26  C21 ZK5 A1918      28.348  -2.175   3.150  0.00  0.00    +0.000 C 
ATOM     27  O5  ZK5 A1918      29.499  -2.915   3.563  0.00  0.00    +0.000 OA
ENDBRANCH  24  26
ENDBRANCH  17  24
TORSDOF 2
ENDMDL
