MODEL 1
REMARK VINA RESULT:      -8.7      0.000      0.000
REMARK  Name = ligand_pdbs\ZK5.pdb
REMARK  2 active torsions:
REMARK  status: ('A' for Active; 'I' for Inactive)
REMARK    1  A    between atoms: C17_17  and  C20_20
REMARK    2  A    between atoms: C20_20  and  C21_21
REMARK                            x       y       z     vdW  Elec       q    Type
REMARK                         _______ _______ _______ _____ _____    ______ ____
ROOT
ATOM      1  C2  ZK5 A1918      27.404   6.963   5.138  0.00  0.00    +0.000 C 
ATOM      2  C3  ZK5 A1918      25.992   7.182   4.674  0.00  0.00    +0.000 C 
ATOM      3  C4  ZK5 A1918      25.045   6.052   4.789  0.00  0.00    +0.000 C 
ATOM      4  C5  ZK5 A1918      25.393   4.822   5.157  0.00  0.00    +0.000 C 
ATOM      5  C6  ZK5 A1918      24.353   3.750   5.280  0.00  0.00    +0.000 C 
ATOM      6  C7  ZK5 A1918      24.727   2.523   4.413  0.00  0.00    +0.000 C 
ATOM      7  C1  ZK5 A1918      27.836   5.517   4.988  0.00  0.00    +0.000 C 
ATOM      8  C8  ZK5 A1918      26.112   1.996   4.790  0.00  0.00    +0.000 C 
ATOM      9  C9  ZK5 A1918      27.179   3.116   4.729  0.00  0.00    +0.000 C 
ATOM     10  C10 ZK5 A1918      26.833   4.425   5.473  0.00  0.00    +0.000 C 
ATOM     11  C11 ZK5 A1918      28.645   2.665   4.892  0.00  0.00    +0.000 C 
ATOM     12  C12 ZK5 A1918      28.996   1.349   4.158  0.00  0.00    +0.000 C 
ATOM     13  C13 ZK5 A1918      27.929   0.247   4.311  0.00  0.00    +0.000 C 
ATOM     14  C14 ZK5 A1918      26.572   0.855   3.904  0.00  0.00    +0.000 C 
ATOM     15  C15 ZK5 A1918      25.609  -0.346   3.805  0.00  0.00    +0.000 C 
ATOM     16  C16 ZK5 A1918      26.543  -1.497   3.380  0.00  0.00    +0.000 C 
ATOM     17  C17 ZK5 A1918      27.985  -0.922   3.303  0.00  0.00    +0.000 C 
ATOM     18  C18 ZK5 A1918      27.928  -0.254   5.776  0.00  0.00    +0.000 C 
ATOM     19  C19 ZK5 A1918      26.974   4.250   7.006  0.00  0.00    +0.000 C 
ATOM     20  F9  ZK5 A1918      27.150   3.443   3.316  0.00  0.00    +0.000 F 
ATOM     21  O1  ZK5 A1918      25.631   8.261   4.210  0.00  0.00    +0.000 OA
ATOM     22  O2  ZK5 A1918      28.935   2.585   6.263  0.00  0.00    +0.000 OA
ATOM     23  O3  ZK5 A1918      28.298  -0.386   2.025  0.00  0.00    +0.000 OA
ENDROOT
BRANCH  17  24
ATOM     24  C20 ZK5 A1918      29.065  -1.969   3.628  0.00  0.00    +0.000 C 
ATOM     25  O4  ZK5 A1918      28.773  -3.069   3.997  0.00  0.00    +0.000 OA
BRANCH  24  26
ATOM     26  C21 ZK5 A1918      30.501  -1.564   3.458  0.00  0.00    +0.000 C 
ATOM     27  O5  ZK5 A1918      31.394  -2.608   3.849  0.00  0.00    +0.000 OA
ENDBRANCH  24  26
ENDBRANCH  17  24
TORSDOF 2
ENDMDL
MODEL 2
REMARK VINA RESULT:      -8.0      1.629      7.133
REMARK  Name = ligand_pdbs\ZK5.pdb
REMARK  2 active torsions:
REMARK  status: ('A' for Active; 'I' for Inactive)
REMARK    1  A    between atoms: C17_17  and  C20_20
REMARK    2  A    between atoms: C20_20  and  C21_21
REMARK                            x       y       z     vdW  Elec       q    Type
REMARK                         _______ _______ _______ _____ _____    ______ ____
ROOT
ATOM      1  C2  ZK5 A1918      28.061  -2.202   2.973  0.00  0.00    +0.000 C 
ATOM      2  C3  ZK5 A1918      29.439  -2.254   3.571  0.00  0.00    +0.000 C 
ATOM      3  C4  ZK5 A1918      29.718  -1.385   4.734  0.00  0.00    +0.000 C 
ATOM      4  C5  ZK5 A1918      28.873  -0.472   5.203  0.00  0.00    +0.000 C 
ATOM      5  C6  ZK5 A1918      29.233   0.337   6.412  0.00  0.00    +0.000 C 
ATOM      6  C7  ZK5 A1918      29.137   1.852   6.106  0.00  0.00    +0.000 C 
ATOM      7  C1  ZK5 A1918      27.413  -0.844   3.152  0.00  0.00    +0.000 C 
ATOM      8  C8  ZK5 A1918      27.743   2.213   5.593  0.00  0.00    +0.000 C 
ATOM      9  C9  ZK5 A1918      27.339   1.334   4.385  0.00  0.00    +0.000 C 
ATOM     10  C10 ZK5 A1918      27.515  -0.190   4.565  0.00  0.00    +0.000 C 
ATOM     11  C11 ZK5 A1918      26.041   1.738   3.656  0.00  0.00    +0.000 C 
ATOM     12  C12 ZK5 A1918      25.852   3.264   3.481  0.00  0.00    +0.000 C 
ATOM     13  C13 ZK5 A1918      26.205   4.083   4.739  0.00  0.00    +0.000 C 
ATOM     14  C14 ZK5 A1918      27.621   3.667   5.182  0.00  0.00    +0.000 C 
ATOM     15  C15 ZK5 A1918      28.026   4.702   6.252  0.00  0.00    +0.000 C 
ATOM     16  C16 ZK5 A1918      27.272   5.970   5.802  0.00  0.00    +0.000 C 
ATOM     17  C17 ZK5 A1918      26.444   5.596   4.540  0.00  0.00    +0.000 C 
ATOM     18  C18 ZK5 A1918      25.146   3.805   5.834  0.00  0.00    +0.000 C 
ATOM     19  C19 ZK5 A1918      26.408  -0.777   5.477  0.00  0.00    +0.000 C 
ATOM     20  F9  ZK5 A1918      28.335   1.736   3.411  0.00  0.00    +0.000 F 
ATOM     21  O1  ZK5 A1918      30.308  -2.990   3.112  0.00  0.00    +0.000 OA
ATOM     22  O2  ZK5 A1918      24.954   1.158   4.329  0.00  0.00    +0.000 OA
ATOM     23  O3  ZK5 A1918      27.170   5.771   3.332  0.00  0.00    +0.000 OA
ENDROOT
BRANCH  17  24
ATOM     24  C20 ZK5 A1918      25.149   6.417   4.409  0.00  0.00    +0.000 C 
ATOM     25  O4  ZK5 A1918      24.208   5.999   3.799  0.00  0.00    +0.000 OA
BRANCH  24  26
ATOM     26  C21 ZK5 A1918      25.105   7.759   5.080  0.00  0.00    +0.000 C 
ATOM     27  O5  ZK5 A1918      25.929   8.712   4.406  0.00  0.00    +0.000 OA
ENDBRANCH  24  26
ENDBRANCH  17  24
TORSDOF 2
ENDMDL
MODEL 3
REMARK VINA RESULT:      -7.3      1.724      2.922
REMARK  Name = ligand_pdbs\ZK5.pdb
REMARK  2 active torsions:
REMARK  status: ('A' for Active; 'I' for Inactive)
REMARK    1  A    between atoms: C17_17  and  C20_20
REMARK    2  A    between atoms: C20_20  and  C21_21
REMARK                            x       y       z     vdW  Elec       q    Type
REMARK                         _______ _______ _______ _____ _____    ______ ____
ROOT
ATOM      1  C2  ZK5 A1918      24.491   6.679   3.990  0.00  0.00    +0.000 C 
ATOM      2  C3  ZK5 A1918      25.150   7.349   5.162  0.00  0.00    +0.000 C 
ATOM      3  C4  ZK5 A1918      26.473   6.847   5.589  0.00  0.00    +0.000 C 
ATOM      4  C5  ZK5 A1918      27.057   5.763   5.085  0.00  0.00    +0.000 C 
ATOM      5  C6  ZK5 A1918      28.420   5.353   5.557  0.00  0.00    +0.000 C 
ATOM      6  C7  ZK5 A1918      28.406   3.890   6.065  0.00  0.00    +0.000 C 
ATOM      7  C1  ZK5 A1918      24.889   5.221   3.868  0.00  0.00    +0.000 C 
ATOM      8  C8  ZK5 A1918      27.889   2.946   4.980  0.00  0.00    +0.000 C 
ATOM      9  C9  ZK5 A1918      26.512   3.403   4.441  0.00  0.00    +0.000 C 
ATOM     10  C10 ZK5 A1918      26.405   4.885   4.020  0.00  0.00    +0.000 C 
ATOM     11  C11 ZK5 A1918      25.797   2.423   3.488  0.00  0.00    +0.000 C 
ATOM     12  C12 ZK5 A1918      25.909   0.935   3.897  0.00  0.00    +0.000 C 
ATOM     13  C13 ZK5 A1918      27.320   0.521   4.360  0.00  0.00    +0.000 C 
ATOM     14  C14 ZK5 A1918      27.760   1.512   5.455  0.00  0.00    +0.000 C 
ATOM     15  C15 ZK5 A1918      29.032   0.893   6.069  0.00  0.00    +0.000 C 
ATOM     16  C16 ZK5 A1918      28.790  -0.621   5.898  0.00  0.00    +0.000 C 
ATOM     17  C17 ZK5 A1918      27.432  -0.795   5.162  0.00  0.00    +0.000 C 
ATOM     18  C18 ZK5 A1918      28.275   0.537   3.141  0.00  0.00    +0.000 C 
ATOM     19  C19 ZK5 A1918      27.118   5.136   2.667  0.00  0.00    +0.000 C 
ATOM     20  F9  ZK5 A1918      25.695   3.269   5.631  0.00  0.00    +0.000 F 
ATOM     21  O1  ZK5 A1918      24.610   8.282   5.752  0.00  0.00    +0.000 OA
ATOM     22  O2  ZK5 A1918      26.279   2.638   2.187  0.00  0.00    +0.000 OA
ATOM     23  O3  ZK5 A1918      26.326  -0.863   6.051  0.00  0.00    +0.000 OA
ENDROOT
BRANCH  17  24
ATOM     24  C20 ZK5 A1918      27.384  -2.060   4.287  0.00  0.00    +0.000 C 
ATOM     25  O4  ZK5 A1918      26.581  -2.924   4.488  0.00  0.00    +0.000 OA
BRANCH  24  26
ATOM     26  C21 ZK5 A1918      28.377  -2.169   3.166  0.00  0.00    +0.000 C 
ATOM     27  O5  ZK5 A1918      29.533  -2.911   3.557  0.00  0.00    +0.000 OA
ENDBRANCH  24  26
ENDBRANCH  17  24
TORSDOF 2
ENDMDL
MODEL 4
REMARK VINA RESULT:      -6.4      1.935      7.044
REMARK  Name = ligand_pdbs\ZK5.pdb
REMARK  2 active torsions:
REMARK  status: ('A' for Active; 'I' for Inactive)
REMARK    1  A    between atoms: C17_17  and  C20_20
REMARK    2  A    between atoms: C20_20  and  C21_21
REMARK                            x       y       z     vdW  Elec       q    Type
REMARK                         _______ _______ _______ _____ _____    ______ ____
ROOT
ATOM      1  C2  ZK5 A1918      28.146  -1.682   5.686  0.00  0.00    +0.000 C 
ATOM      2  C3  ZK5 A1918      27.188  -2.296   4.704  0.00  0.00    +0.000 C 
ATOM      3  C4  ZK5 A1918      26.777  -1.481   3.541  0.00  0.00    +0.000 C 
ATOM      4  C5  ZK5 A1918      27.099  -0.201   3.376  0.00  0.00    +0.000 C 
ATOM      5  C6  ZK5 A1918      26.666   0.532   2.143  0.00  0.00    +0.000 C 
ATOM      6  C7  ZK5 A1918      25.876   1.811   2.516  0.00  0.00    +0.000 C 
ATOM      7  C1  ZK5 A1918      28.006  -0.175   5.754  0.00  0.00    +0.000 C 
ATOM      8  C8  ZK5 A1918      26.706   2.711   3.431  0.00  0.00    +0.000 C 
ATOM      9  C9  ZK5 A1918      27.213   1.940   4.675  0.00  0.00    +0.000 C 
ATOM     10  C10 ZK5 A1918      27.912   0.591   4.398  0.00  0.00    +0.000 C 
ATOM     11  C11 ZK5 A1918      27.890   2.790   5.770  0.00  0.00    +0.000 C 
ATOM     12  C12 ZK5 A1918      27.202   4.148   6.044  0.00  0.00    +0.000 C 
ATOM     13  C13 ZK5 A1918      26.781   4.902   4.768  0.00  0.00    +0.000 C 
ATOM     14  C14 ZK5 A1918      25.945   3.932   3.910  0.00  0.00    +0.000 C 
ATOM     15  C15 ZK5 A1918      25.323   4.809   2.804  0.00  0.00    +0.000 C 
ATOM     16  C16 ZK5 A1918      25.168   6.177   3.500  0.00  0.00    +0.000 C 
ATOM     17  C17 ZK5 A1918      25.744   6.034   4.938  0.00  0.00    +0.000 C 
ATOM     18  C18 ZK5 A1918      28.051   5.389   4.027  0.00  0.00    +0.000 C 
ATOM     19  C19 ZK5 A1918      29.341   0.805   3.836  0.00  0.00    +0.000 C 
ATOM     20  F9  ZK5 A1918      25.958   1.612   5.322  0.00  0.00    +0.000 F 
ATOM     21  O1  ZK5 A1918      26.755  -3.435   4.859  0.00  0.00    +0.000 OA
ATOM     22  O2  ZK5 A1918      29.242   2.956   5.430  0.00  0.00    +0.000 OA
ATOM     23  O3  ZK5 A1918      24.773   5.603   5.881  0.00  0.00    +0.000 OA
ENDROOT
BRANCH  17  24
ATOM     24  C20 ZK5 A1918      26.341   7.347   5.476  0.00  0.00    +0.000 C 
ATOM     25  O4  ZK5 A1918      27.413   7.369   6.006  0.00  0.00    +0.000 OA
BRANCH  24  26
ATOM     26  C21 ZK5 A1918      25.533   8.600   5.305  0.00  0.00    +0.000 C 
ATOM     27  O5  ZK5 A1918      24.952   9.025   6.539  0.00  0.00    +0.000 OA
ENDBRANCH  24  26
ENDBRANCH  17  24
TORSDOF 2
ENDMDL
