MODEL 1
REMARK VINA RESULT:      -8.7      0.000      0.000
REMARK  Name = ligand_pdbs\ZK5_A_1918 .pdb
REMARK  2 active torsions:
REMARK  status: ('A' for Active; 'I' for Inactive)
REMARK    1  A    between atoms: C17_17  and  C20_20
REMARK    2  A    between atoms: C20_20  and  C21_21
REMARK                            x       y       z     vdW  Elec       q    Type
REMARK                         _______ _______ _______ _____ _____    ______ ____
ROOT
ATOM      1  C2  ZK5 A1918      27.403   6.963   5.142  0.00  0.00    +0.000 C 
ATOM      2  C3  ZK5 A1918      25.992   7.183   4.674  0.00  0.00    +0.000 C 
ATOM      3  C4  ZK5 A1918      25.045   6.054   4.786  0.00  0.00    +0.000 C 
ATOM      4  C5  ZK5 A1918      25.391   4.823   5.154  0.00  0.00    +0.000 C 
ATOM      5  C6  ZK5 A1918      24.350   3.752   5.273  0.00  0.00    +0.000 C 
ATOM      6  C7  ZK5 A1918      24.726   2.525   4.407  0.00  0.00    +0.000 C 
ATOM      7  C1  ZK5 A1918      27.834   5.518   4.994  0.00  0.00    +0.000 C 
ATOM      8  C8  ZK5 A1918      26.109   1.997   4.787  0.00  0.00    +0.000 C 
ATOM      9  C9  ZK5 A1918      27.177   3.117   4.730  0.00  0.00    +0.000 C 
ATOM     10  C10 ZK5 A1918      26.830   4.425   5.474  0.00  0.00    +0.000 C 
ATOM     11  C11 ZK5 A1918      28.643   2.665   4.897  0.00  0.00    +0.000 C 
ATOM     12  C12 ZK5 A1918      28.996   1.349   4.164  0.00  0.00    +0.000 C 
ATOM     13  C13 ZK5 A1918      27.928   0.248   4.313  0.00  0.00    +0.000 C 
ATOM     14  C14 ZK5 A1918      26.572   0.856   3.902  0.00  0.00    +0.000 C 
ATOM     15  C15 ZK5 A1918      25.609  -0.344   3.799  0.00  0.00    +0.000 C 
ATOM     16  C16 ZK5 A1918      26.544  -1.496   3.376  0.00  0.00    +0.000 C 
ATOM     17  C17 ZK5 A1918      27.987  -0.921   3.304  0.00  0.00    +0.000 C 
ATOM     18  C18 ZK5 A1918      27.921  -0.255   5.778  0.00  0.00    +0.000 C 
ATOM     19  C19 ZK5 A1918      26.966   4.250   7.008  0.00  0.00    +0.000 C 
ATOM     20  F9  ZK5 A1918      27.153   3.444   3.318  0.00  0.00    +0.000 F 
ATOM     21  O1  ZK5 A1918      25.633   8.263   4.210  0.00  0.00    +0.000 OA
ATOM     22  O2  ZK5 A1918      28.929   2.584   6.269  0.00  0.00    +0.000 OA
ATOM     23  O3  ZK5 A1918      28.304  -0.384   2.028  0.00  0.00    +0.000 OA
ENDROOT
BRANCH  17  24
ATOM     24  C20 ZK5 A1918      29.065  -1.969   3.632  0.00  0.00    +0.000 C 
ATOM     25  O4  ZK5 A1918      28.771  -3.067   4.005  0.00  0.00    +0.000 OA
BRANCH  24  26
ATOM     26  C21 ZK5 A1918      30.501  -1.566   3.460  0.00  0.00    +0.000 C 
ATOM     27  O5  ZK5 A1918      31.392  -2.611   3.853  0.00  0.00    +0.000 OA
ENDBRANCH  24  26
ENDBRANCH  17  24
TORSDOF 2
ENDMDL
MODEL 2
REMARK VINA RESULT:      -8.0      1.628      7.134
REMARK  Name = ligand_pdbs\ZK5_A_1918 .pdb
REMARK  2 active torsions:
REMARK  status: ('A' for Active; 'I' for Inactive)
REMARK    1  A    between atoms: C17_17  and  C20_20
REMARK    2  A    between atoms: C20_20  and  C21_21
REMARK                            x       y       z     vdW  Elec       q    Type
REMARK                         _______ _______ _______ _____ _____    ______ ____
ROOT
ATOM      1  C2  ZK5 A1918      28.058  -2.200   2.971  0.00  0.00    +0.000 C 
ATOM      2  C3  ZK5 A1918      29.435  -2.255   3.569  0.00  0.00    +0.000 C 
ATOM      3  C4  ZK5 A1918      29.717  -1.386   4.732  0.00  0.00    +0.000 C 
ATOM      4  C5  ZK5 A1918      28.873  -0.471   5.201  0.00  0.00    +0.000 C 
ATOM      5  C6  ZK5 A1918      29.233   0.337   6.410  0.00  0.00    +0.000 C 
ATOM      6  C7  ZK5 A1918      29.140   1.853   6.103  0.00  0.00    +0.000 C 
ATOM      7  C1  ZK5 A1918      27.412  -0.841   3.150  0.00  0.00    +0.000 C 
ATOM      8  C8  ZK5 A1918      27.748   2.216   5.590  0.00  0.00    +0.000 C 
ATOM      9  C9  ZK5 A1918      27.342   1.337   4.382  0.00  0.00    +0.000 C 
ATOM     10  C10 ZK5 A1918      27.515  -0.187   4.563  0.00  0.00    +0.000 C 
ATOM     11  C11 ZK5 A1918      26.045   1.743   3.652  0.00  0.00    +0.000 C 
ATOM     12  C12 ZK5 A1918      25.859   3.270   3.478  0.00  0.00    +0.000 C 
ATOM     13  C13 ZK5 A1918      26.213   4.088   4.735  0.00  0.00    +0.000 C 
ATOM     14  C14 ZK5 A1918      27.629   3.670   5.179  0.00  0.00    +0.000 C 
ATOM     15  C15 ZK5 A1918      28.035   4.704   6.249  0.00  0.00    +0.000 C 
ATOM     16  C16 ZK5 A1918      27.283   5.974   5.798  0.00  0.00    +0.000 C 
ATOM     17  C17 ZK5 A1918      26.455   5.601   4.536  0.00  0.00    +0.000 C 
ATOM     18  C18 ZK5 A1918      25.153   3.812   5.830  0.00  0.00    +0.000 C 
ATOM     19  C19 ZK5 A1918      26.407  -0.772   5.474  0.00  0.00    +0.000 C 
ATOM     20  F9  ZK5 A1918      28.339   1.737   3.408  0.00  0.00    +0.000 F 
ATOM     21  O1  ZK5 A1918      30.304  -2.993   3.110  0.00  0.00    +0.000 OA
ATOM     22  O2  ZK5 A1918      24.957   1.165   4.325  0.00  0.00    +0.000 OA
ATOM     23  O3  ZK5 A1918      27.182   5.774   3.328  0.00  0.00    +0.000 OA
ENDROOT
BRANCH  17  24
ATOM     24  C20 ZK5 A1918      25.161   6.424   4.405  0.00  0.00    +0.000 C 
ATOM     25  O4  ZK5 A1918      24.222   6.010   3.789  0.00  0.00    +0.000 OA
BRANCH  24  26
ATOM     26  C21 ZK5 A1918      25.117   7.763   5.082  0.00  0.00    +0.000 C 
ATOM     27  O5  ZK5 A1918      25.937   8.721   4.412  0.00  0.00    +0.000 OA
ENDBRANCH  24  26
ENDBRANCH  17  24
TORSDOF 2
ENDMDL
MODEL 3
REMARK VINA RESULT:      -7.2      1.727      2.915
REMARK  Name = ligand_pdbs\ZK5_A_1918 .pdb
REMARK  2 active torsions:
REMARK  status: ('A' for Active; 'I' for Inactive)
REMARK    1  A    between atoms: C17_17  and  C20_20
REMARK    2  A    between atoms: C20_20  and  C21_21
REMARK                            x       y       z     vdW  Elec       q    Type
REMARK                         _______ _______ _______ _____ _____    ______ ____
ROOT
ATOM      1  C2  ZK5 A1918      24.559   6.712   3.961  0.00  0.00    +0.000 C 
ATOM      2  C3  ZK5 A1918      25.200   7.367   5.152  0.00  0.00    +0.000 C 
ATOM      3  C4  ZK5 A1918      26.508   6.846   5.605  0.00  0.00    +0.000 C 
ATOM      4  C5  ZK5 A1918      27.090   5.759   5.106  0.00  0.00    +0.000 C 
ATOM      5  C6  ZK5 A1918      28.437   5.331   5.605  0.00  0.00    +0.000 C 
ATOM      6  C7  ZK5 A1918      28.395   3.865   6.103  0.00  0.00    +0.000 C 
ATOM      7  C1  ZK5 A1918      24.943   5.251   3.839  0.00  0.00    +0.000 C 
ATOM      8  C8  ZK5 A1918      27.891   2.934   5.000  0.00  0.00    +0.000 C 
ATOM      9  C9  ZK5 A1918      26.531   3.410   4.434  0.00  0.00    +0.000 C 
ATOM     10  C10 ZK5 A1918      26.451   4.896   4.021  0.00  0.00    +0.000 C 
ATOM     11  C11 ZK5 A1918      25.827   2.445   3.459  0.00  0.00    +0.000 C 
ATOM     12  C12 ZK5 A1918      25.912   0.953   3.861  0.00  0.00    +0.000 C 
ATOM     13  C13 ZK5 A1918      27.308   0.519   4.351  0.00  0.00    +0.000 C 
ATOM     14  C14 ZK5 A1918      27.735   1.498   5.463  0.00  0.00    +0.000 C 
ATOM     15  C15 ZK5 A1918      28.986   0.860   6.101  0.00  0.00    +0.000 C 
ATOM     16  C16 ZK5 A1918      28.730  -0.650   5.914  0.00  0.00    +0.000 C 
ATOM     17  C17 ZK5 A1918      27.387  -0.803   5.147  0.00  0.00    +0.000 C 
ATOM     18  C18 ZK5 A1918      28.290   0.532   3.154  0.00  0.00    +0.000 C 
ATOM     19  C19 ZK5 A1918      27.197   5.147   2.685  0.00  0.00    +0.000 C 
ATOM     20  F9  ZK5 A1918      25.688   3.278   5.606  0.00  0.00    +0.000 F 
ATOM     21  O1  ZK5 A1918      24.658   8.302   5.737  0.00  0.00    +0.000 OA
ATOM     22  O2  ZK5 A1918      26.339   2.662   2.171  0.00  0.00    +0.000 OA
ATOM     23  O3  ZK5 A1918      26.261  -0.864   6.011  0.00  0.00    +0.000 OA
ENDROOT
BRANCH  17  24
ATOM     24  C20 ZK5 A1918      27.343  -2.062   4.263  0.00  0.00    +0.000 C 
ATOM     25  O4  ZK5 A1918      26.535  -2.924   4.450  0.00  0.00    +0.000 OA
BRANCH  24  26
ATOM     26  C21 ZK5 A1918      28.347  -2.166   3.151  0.00  0.00    +0.000 C 
ATOM     27  O5  ZK5 A1918      29.494  -2.921   3.546  0.00  0.00    +0.000 OA
ENDBRANCH  24  26
ENDBRANCH  17  24
TORSDOF 2
ENDMDL
MODEL 4
REMARK VINA RESULT:      -6.8      1.730      7.074
REMARK  Name = ligand_pdbs\ZK5_A_1918 .pdb
REMARK  2 active torsions:
REMARK  status: ('A' for Active; 'I' for Inactive)
REMARK    1  A    between atoms: C17_17  and  C20_20
REMARK    2  A    between atoms: C20_20  and  C21_21
REMARK                            x       y       z     vdW  Elec       q    Type
REMARK                         _______ _______ _______ _____ _____    ______ ____
ROOT
ATOM      1  C2  ZK5 A1918      27.972  -2.131   2.910  0.00  0.00    +0.000 C 
ATOM      2  C3  ZK5 A1918      29.354  -2.275   3.482  0.00  0.00    +0.000 C 
ATOM      3  C4  ZK5 A1918      29.696  -1.462   4.669  0.00  0.00    +0.000 C 
ATOM      4  C5  ZK5 A1918      28.906  -0.523   5.183  0.00  0.00    +0.000 C 
ATOM      5  C6  ZK5 A1918      29.325   0.224   6.413  0.00  0.00    +0.000 C 
ATOM      6  C7  ZK5 A1918      29.303   1.751   6.159  0.00  0.00    +0.000 C 
ATOM      7  C1  ZK5 A1918      27.397  -0.748   3.146  0.00  0.00    +0.000 C 
ATOM      8  C8  ZK5 A1918      27.923   2.201   5.683  0.00  0.00    +0.000 C 
ATOM      9  C9  ZK5 A1918      27.455   1.386   4.453  0.00  0.00    +0.000 C 
ATOM     10  C10 ZK5 A1918      27.555  -0.151   4.578  0.00  0.00    +0.000 C 
ATOM     11  C11 ZK5 A1918      26.169   1.881   3.760  0.00  0.00    +0.000 C 
ATOM     12  C12 ZK5 A1918      26.057   3.420   3.641  0.00  0.00    +0.000 C 
ATOM     13  C13 ZK5 A1918      26.470   4.175   4.919  0.00  0.00    +0.000 C 
ATOM     14  C14 ZK5 A1918      27.870   3.673   5.324  0.00  0.00    +0.000 C 
ATOM     15  C15 ZK5 A1918      28.344   4.647   6.422  0.00  0.00    +0.000 C 
ATOM     16  C16 ZK5 A1918      27.650   5.967   6.028  0.00  0.00    +0.000 C 
ATOM     17  C17 ZK5 A1918      26.785   5.680   4.768  0.00  0.00    +0.000 C 
ATOM     18  C18 ZK5 A1918      25.416   3.914   6.022  0.00  0.00    +0.000 C 
ATOM     19  C19 ZK5 A1918      26.432  -0.711   5.488  0.00  0.00    +0.000 C 
ATOM     20  F9  ZK5 A1918      28.456   1.770   3.476  0.00  0.00    +0.000 F 
ATOM     21  O1  ZK5 A1918      30.177  -3.038   2.983  0.00  0.00    +0.000 OA
ATOM     22  O2  ZK5 A1918      25.064   1.334   4.431  0.00  0.00    +0.000 OA
ATOM     23  O3  ZK5 A1918      27.501   5.860   3.554  0.00  0.00    +0.000 OA
ENDROOT
BRANCH  17  24
ATOM     24  C20 ZK5 A1918      25.532   6.570   4.687  0.00  0.00    +0.000 C 
ATOM     25  O4  ZK5 A1918      25.391   7.512   5.412  0.00  0.00    +0.000 OA
BRANCH  24  26
ATOM     26  C21 ZK5 A1918      24.495   6.219   3.660  0.00  0.00    +0.000 C 
ATOM     27  O5  ZK5 A1918      23.412   5.485   4.235  0.00  0.00    +0.000 OA
ENDBRANCH  24  26
ENDBRANCH  17  24
TORSDOF 2
ENDMDL
MODEL 5
REMARK VINA RESULT:      -6.4      1.933      7.043
REMARK  Name = ligand_pdbs\ZK5_A_1918 .pdb
REMARK  2 active torsions:
REMARK  status: ('A' for Active; 'I' for Inactive)
REMARK    1  A    between atoms: C17_17  and  C20_20
REMARK    2  A    between atoms: C20_20  and  C21_21
REMARK                            x       y       z     vdW  Elec       q    Type
REMARK                         _______ _______ _______ _____ _____    ______ ____
ROOT
ATOM      1  C2  ZK5 A1918      28.152  -1.684   5.685  0.00  0.00    +0.000 C 
ATOM      2  C3  ZK5 A1918      27.194  -2.298   4.705  0.00  0.00    +0.000 C 
ATOM      3  C4  ZK5 A1918      26.781  -1.484   3.542  0.00  0.00    +0.000 C 
ATOM      4  C5  ZK5 A1918      27.103  -0.204   3.376  0.00  0.00    +0.000 C 
ATOM      5  C6  ZK5 A1918      26.667   0.528   2.143  0.00  0.00    +0.000 C 
ATOM      6  C7  ZK5 A1918      25.878   1.807   2.516  0.00  0.00    +0.000 C 
ATOM      7  C1  ZK5 A1918      28.012  -0.176   5.753  0.00  0.00    +0.000 C 
ATOM      8  C8  ZK5 A1918      26.708   2.708   3.430  0.00  0.00    +0.000 C 
ATOM      9  C9  ZK5 A1918      27.217   1.938   4.673  0.00  0.00    +0.000 C 
ATOM     10  C10 ZK5 A1918      27.916   0.588   4.396  0.00  0.00    +0.000 C 
ATOM     11  C11 ZK5 A1918      27.896   2.788   5.767  0.00  0.00    +0.000 C 
ATOM     12  C12 ZK5 A1918      27.208   4.146   6.041  0.00  0.00    +0.000 C 
ATOM     13  C13 ZK5 A1918      26.785   4.899   4.765  0.00  0.00    +0.000 C 
ATOM     14  C14 ZK5 A1918      25.948   3.929   3.908  0.00  0.00    +0.000 C 
ATOM     15  C15 ZK5 A1918      25.324   4.805   2.803  0.00  0.00    +0.000 C 
ATOM     16  C16 ZK5 A1918      25.170   6.173   3.499  0.00  0.00    +0.000 C 
ATOM     17  C17 ZK5 A1918      25.747   6.032   4.936  0.00  0.00    +0.000 C 
ATOM     18  C18 ZK5 A1918      28.053   5.387   4.022  0.00  0.00    +0.000 C 
ATOM     19  C19 ZK5 A1918      29.344   0.803   3.833  0.00  0.00    +0.000 C 
ATOM     20  F9  ZK5 A1918      25.963   1.610   5.322  0.00  0.00    +0.000 F 
ATOM     21  O1  ZK5 A1918      26.761  -3.437   4.861  0.00  0.00    +0.000 OA
ATOM     22  O2  ZK5 A1918      29.247   2.954   5.425  0.00  0.00    +0.000 OA
ATOM     23  O3  ZK5 A1918      24.778   5.601   5.880  0.00  0.00    +0.000 OA
ENDROOT
BRANCH  17  24
ATOM     24  C20 ZK5 A1918      26.345   7.344   5.472  0.00  0.00    +0.000 C 
ATOM     25  O4  ZK5 A1918      27.413   7.366   6.010  0.00  0.00    +0.000 OA
BRANCH  24  26
ATOM     26  C21 ZK5 A1918      25.542   8.600   5.290  0.00  0.00    +0.000 C 
ATOM     27  O5  ZK5 A1918      24.925   9.013   6.510  0.00  0.00    +0.000 OA
ENDBRANCH  24  26
ENDBRANCH  17  24
TORSDOF 2
ENDMDL
