MODEL 1
REMARK VINA RESULT:       1.8      0.000      0.000
REMARK  Name = ligand_pdbs\ZLK.pdb
REMARK  9 active torsions:
REMARK  status: ('A' for Active; 'I' for Inactive)
REMARK    1  A    between atoms: C03_3  and  O02_35
REMARK    2  A    between atoms: C04_4  and  C05_5
REMARK    3  A    between atoms: C05_5  and  C06_6
REMARK    4  A    between atoms: C13_11  and  N14_33
REMARK    5  A    between atoms: C15_12  and  O17_37
REMARK    6  A    between atoms: C18_13  and  O17_37
REMARK    7  A    between atoms: C27_22  and  C29_24
REMARK    8  A    between atoms: C35_25  and  S32_41
REMARK    9  A    between atoms: N31_34  and  S32_41
REMARK                            x       y       z     vdW  Elec       q    Type
REMARK                         _______ _______ _______ _____ _____    ______ ____
ROOT
ATOM      1  C03 ZLK C1116      24.455   3.293   5.815  0.00  0.00    +0.000 A 
ATOM      2  C04 ZLK C1116      23.846   3.568   4.565  0.00  0.00    +0.000 A 
ATOM      3  C25 ZLK C1116      24.080   2.711   3.473  0.00  0.00    +0.000 A 
ATOM      4  C26 ZLK C1116      24.890   1.568   3.607  0.00  0.00    +0.000 A 
ATOM      5  C27 ZLK C1116      25.497   1.263   4.834  0.00  0.00    +0.000 A 
ATOM      6  C28 ZLK C1116      25.280   2.123   5.920  0.00  0.00    +0.000 A 
ENDROOT
BRANCH   5   7
ATOM      7  C29 ZLK C1116      26.369  -0.014   4.955  0.00  0.00    +0.000 C 
ATOM      8  N31 ZLK C1116      26.089  -1.080   4.021  0.00  0.00    +0.000 NA
ATOM      9  O30 ZLK C1116      27.221  -0.139   5.789  0.00  0.00    +0.000 OA
BRANCH   8  12
ATOM     10  O33 ZLK C1116      26.109  -3.486   2.877  0.00  0.00    +0.000 OA
ATOM     11  O34 ZLK C1116      26.633  -3.458   5.066  0.00  0.00    +0.000 OA
ATOM     12  S32 ZLK C1116      26.841  -2.632   3.874  0.00  0.00    +0.000 S 
BRANCH  12  13
ATOM     13  C35 ZLK C1116      28.623  -2.287   3.434  0.00  0.00    +0.000 A 
ATOM     14  C36 ZLK C1116      29.646  -3.178   3.879  0.00  0.00    +0.000 A 
ATOM     15  C37 ZLK C1116      30.998  -2.980   3.581  0.00  0.00    +0.000 A 
ATOM     16  C38 ZLK C1116      31.419  -1.871   2.839  0.00  0.00    +0.000 A 
ATOM     17  C39 ZLK C1116      30.440  -0.961   2.391  0.00  0.00    +0.000 A 
ATOM     18  C40 ZLK C1116      29.079  -1.143   2.667  0.00  0.00    +0.000 A 
ATOM     19  C41 ZLK C1116      28.128  -0.023   2.074  0.00  0.00    +0.000 C 
ENDBRANCH  12  13
ENDBRANCH   8  12
ENDBRANCH   5   7
BRANCH   1  21
ATOM     20  C01 ZLK C1116      25.091   3.966   8.063  0.00  0.00    +0.000 C 
ATOM     21  O02 ZLK C1116      24.263   4.150   6.943  0.00  0.00    +0.000 OA
ENDBRANCH   1  21
BRANCH   2  22
ATOM     22  C05 ZLK C1116      22.932   4.840   4.231  0.00  0.00    +0.000 C 
BRANCH  22  24
ATOM     23  C11 ZLK C1116      25.296   5.968   4.667  0.00  0.00    +0.000 A 
ATOM     24  C06 ZLK C1116      23.853   6.010   4.715  0.00  0.00    +0.000 A 
ATOM     25  C07 ZLK C1116      23.540   7.257   5.194  0.00  0.00    +0.000 A 
ATOM     26  C09 ZLK C1116      24.753   9.312   5.987  0.00  0.00    +0.000 C 
ATOM     27  C10 ZLK C1116      25.757   7.165   5.127  0.00  0.00    +0.000 A 
ATOM     28  C12 ZLK C1116      26.194   4.973   4.252  0.00  0.00    +0.000 A 
ATOM     29  C13 ZLK C1116      27.584   5.134   4.298  0.00  0.00    +0.000 A 
ATOM     30  C23 ZLK C1116      28.066   6.362   4.777  0.00  0.00    +0.000 A 
ATOM     31  C24 ZLK C1116      27.189   7.353   5.181  0.00  0.00    +0.000 A 
ATOM     32  N08 ZLK C1116      24.692   7.943   5.450  0.00  0.00    +0.000 N 
BRANCH  29  34
ATOM     33  C15 ZLK C1116      28.833   2.971   4.806  0.00  0.00    +0.000 C 
ATOM     34  N14 ZLK C1116      28.465   4.026   3.857  0.00  0.00    +0.000 NA
ATOM     35  O16 ZLK C1116      28.554   3.120   5.975  0.00  0.00    +0.000 OA
BRANCH  33  36
ATOM     36  O17 ZLK C1116      29.509   1.741   4.390  0.00  0.00    +0.000 OA
BRANCH  36  37
ATOM     37  C18 ZLK C1116      30.446   1.040   5.253  0.00  0.00    +0.000 C 
ATOM     38  C19 ZLK C1116      29.787   0.087   6.463  0.00  0.00    +0.000 C 
ATOM     39  C20 ZLK C1116      30.837  -0.239   7.286  0.00  0.00    +0.000 C 
ATOM     40  C21 ZLK C1116      31.793   1.045   7.230  0.00  0.00    +0.000 C 
ATOM     41  C22 ZLK C1116      31.340   1.859   5.916  0.00  0.00    +0.000 C 
ENDBRANCH  36  37
ENDBRANCH  33  36
ENDBRANCH  29  34
ENDBRANCH  22  24
ENDBRANCH   2  22
TORSDOF 9
ENDMDL
MODEL 2
REMARK VINA RESULT:       4.4      1.580      2.072
REMARK  Name = ligand_pdbs\ZLK.pdb
REMARK  9 active torsions:
REMARK  status: ('A' for Active; 'I' for Inactive)
REMARK    1  A    between atoms: C03_3  and  O02_35
REMARK    2  A    between atoms: C04_4  and  C05_5
REMARK    3  A    between atoms: C05_5  and  C06_6
REMARK    4  A    between atoms: C13_11  and  N14_33
REMARK    5  A    between atoms: C15_12  and  O17_37
REMARK    6  A    between atoms: C18_13  and  O17_37
REMARK    7  A    between atoms: C27_22  and  C29_24
REMARK    8  A    between atoms: C35_25  and  S32_41
REMARK    9  A    between atoms: N31_34  and  S32_41
REMARK                            x       y       z     vdW  Elec       q    Type
REMARK                         _______ _______ _______ _____ _____    ______ ____
ROOT
ATOM      1  C03 ZLK C1116      25.122   3.972   3.314  0.00  0.00    +0.000 A 
ATOM      2  C04 ZLK C1116      23.933   4.133   4.071  0.00  0.00    +0.000 A 
ATOM      3  C25 ZLK C1116      23.306   3.003   4.630  0.00  0.00    +0.000 A 
ATOM      4  C26 ZLK C1116      23.853   1.715   4.471  0.00  0.00    +0.000 A 
ATOM      5  C27 ZLK C1116      25.034   1.526   3.738  0.00  0.00    +0.000 A 
ATOM      6  C28 ZLK C1116      25.653   2.647   3.166  0.00  0.00    +0.000 A 
ENDROOT
BRANCH   5   7
ATOM      7  C29 ZLK C1116      25.622   0.098   3.596  0.00  0.00    +0.000 C 
ATOM      8  N31 ZLK C1116      26.433  -0.379   4.692  0.00  0.00    +0.000 NA
ATOM      9  O30 ZLK C1116      25.445  -0.581   2.624  0.00  0.00    +0.000 OA
BRANCH   8  12
ATOM     10  O33 ZLK C1116      26.375  -3.028   4.414  0.00  0.00    +0.000 OA
ATOM     11  O34 ZLK C1116      27.390  -2.279   6.279  0.00  0.00    +0.000 OA
ATOM     12  S32 ZLK C1116      27.250  -1.894   4.871  0.00  0.00    +0.000 S 
BRANCH  12  13
ATOM     13  C35 ZLK C1116      28.847  -1.720   3.920  0.00  0.00    +0.000 A 
ATOM     14  C36 ZLK C1116      29.760  -2.817   3.864  0.00  0.00    +0.000 A 
ATOM     15  C37 ZLK C1116      30.971  -2.753   3.167  0.00  0.00    +0.000 A 
ATOM     16  C38 ZLK C1116      31.358  -1.587   2.498  0.00  0.00    +0.000 A 
ATOM     17  C39 ZLK C1116      30.490  -0.477   2.539  0.00  0.00    +0.000 A 
ATOM     18  C40 ZLK C1116      29.267  -0.519   3.221  0.00  0.00    +0.000 A 
ATOM     19  C41 ZLK C1116      28.423   0.818   3.149  0.00  0.00    +0.000 C 
ENDBRANCH  12  13
ENDBRANCH   8  12
ENDBRANCH   5   7
BRANCH   1  21
ATOM     20  C01 ZLK C1116      27.155   4.991   2.454  0.00  0.00    +0.000 C 
ATOM     21  O02 ZLK C1116      25.777   5.090   2.711  0.00  0.00    +0.000 OA
ENDBRANCH   1  21
BRANCH   2  22
ATOM     22  C05 ZLK C1116      23.161   5.513   4.315  0.00  0.00    +0.000 C 
BRANCH  22  24
ATOM     23  C11 ZLK C1116      25.600   6.166   5.136  0.00  0.00    +0.000 A 
ATOM     24  C06 ZLK C1116      24.360   6.507   4.478  0.00  0.00    +0.000 A 
ATOM     25  C07 ZLK C1116      24.528   7.790   4.025  0.00  0.00    +0.000 A 
ATOM     26  C09 ZLK C1116      26.298   9.575   4.082  0.00  0.00    +0.000 C 
ATOM     27  C10 ZLK C1116      26.420   7.252   5.054  0.00  0.00    +0.000 A 
ATOM     28  C12 ZLK C1116      26.034   4.996   5.775  0.00  0.00    +0.000 A 
ATOM     29  C13 ZLK C1116      27.297   4.875   6.369  0.00  0.00    +0.000 A 
ATOM     30  C23 ZLK C1116      28.143   5.992   6.294  0.00  0.00    +0.000 A 
ATOM     31  C24 ZLK C1116      27.728   7.149   5.659  0.00  0.00    +0.000 A 
ATOM     32  N08 ZLK C1116      25.766   8.237   4.384  0.00  0.00    +0.000 N 
BRANCH  29  34
ATOM     33  C15 ZLK C1116      28.026   2.437   6.232  0.00  0.00    +0.000 C 
ATOM     34  N14 ZLK C1116      27.672   3.608   7.041  0.00  0.00    +0.000 NA
ATOM     35  O16 ZLK C1116      27.834   2.479   5.037  0.00  0.00    +0.000 OA
BRANCH  33  36
ATOM     36  O17 ZLK C1116      28.616   1.230   6.813  0.00  0.00    +0.000 OA
BRANCH  36  37
ATOM     37  C18 ZLK C1116      30.047   1.088   7.024  0.00  0.00    +0.000 C 
ATOM     38  C19 ZLK C1116      31.043   2.090   6.124  0.00  0.00    +0.000 C 
ATOM     39  C20 ZLK C1116      32.312   1.591   6.292  0.00  0.00    +0.000 C 
ATOM     40  C21 ZLK C1116      32.099   0.010   6.429  0.00  0.00    +0.000 C 
ATOM     41  C22 ZLK C1116      30.540  -0.181   6.787  0.00  0.00    +0.000 C 
ENDBRANCH  36  37
ENDBRANCH  33  36
ENDBRANCH  29  34
ENDBRANCH  22  24
ENDBRANCH   2  22
TORSDOF 9
ENDMDL
