MODEL 1
REMARK VINA RESULT:      -4.4      0.000      0.000
REMARK  Name = ligand_pdbs\ZR1.pdb
REMARK  4 active torsions:
REMARK  status: ('A' for Active; 'I' for Inactive)
REMARK    1  A    between atoms: C17_8  and  C22_22
REMARK    2  A    between atoms: C13_9  and  O1_29
REMARK    3  A    between atoms: C8_17  and  N3_25
REMARK    4  A    between atoms: C10_18  and  O1_29
REMARK                            x       y       z     vdW  Elec       q    Type
REMARK                         _______ _______ _______ _____ _____    ______ ____
ROOT
ATOM      1  C9  ZR1 A 701      24.784   1.732   4.967  0.00  0.00    +0.000 C 
ATOM      2  C8  ZR1 A 701      24.659   2.707   3.800  0.00  0.00    +0.000 C 
ATOM      3  C10 ZR1 A 701      25.380   0.463   4.356  0.00  0.00    +0.000 C 
ATOM      4  C12 ZR1 A 701      25.931   2.414   3.008  0.00  0.00    +0.000 C 
ATOM      5  C11 ZR1 A 701      26.131   0.890   3.085  0.00  0.00    +0.000 C 
ATOM      6  O3  ZR1 A 701      25.892   2.878   1.661  0.00  0.00    +0.000 OA
ATOM      7  O2  ZR1 A 701      25.613   0.202   1.953  0.00  0.00    +0.000 OA
ENDROOT
BRANCH   2  17
ATOM      8  C5  ZR1 A 701      23.682   6.087   4.849  0.00  0.00    +0.000 C 
ATOM      9  C6  ZR1 A 701      23.393   4.826   4.435  0.00  0.00    +0.000 C 
ATOM     10  C3  ZR1 A 701      27.719   5.626   4.799  0.00  0.00    +0.000 C 
ATOM     11  C1  ZR1 A 701      25.115   6.192   4.902  0.00  0.00    +0.000 C 
ATOM     12  C4  ZR1 A 701      26.073   7.160   5.247  0.00  0.00    +0.000 C 
ATOM     13  C2  ZR1 A 701      25.624   4.943   4.519  0.00  0.00    +0.000 C 
ATOM     14  C7  ZR1 A 701      25.721   8.566   5.636  0.00  0.00    +0.000 C 
ATOM     15  N2  ZR1 A 701      27.382   6.860   5.196  0.00  0.00    +0.000 NA
ATOM     16  N1  ZR1 A 701      26.922   4.619   4.436  0.00  0.00    +0.000 NA
ATOM     17  N3  ZR1 A 701      24.575   4.106   4.253  0.00  0.00    +0.000 N 
ENDBRANCH   2  17
BRANCH   3  18
ATOM     18  O1  ZR1 A 701      26.243  -0.178   5.333  0.00  0.00    +0.000 OA
BRANCH  18  23
ATOM     19  C18 ZR1 A 701      28.158   1.128   6.098  0.00  0.00    +0.000 A 
ATOM     20  C14 ZR1 A 701      28.391  -0.919   4.793  0.00  0.00    +0.000 A 
ATOM     21  C15 ZR1 A 701      29.790  -0.783   4.823  0.00  0.00    +0.000 A 
ATOM     22  C17 ZR1 A 701      29.543   1.263   6.185  0.00  0.00    +0.000 A 
ATOM     23  C13 ZR1 A 701      27.601   0.054   5.430  0.00  0.00    +0.000 A 
ATOM     24  C16 ZR1 A 701      30.316   0.272   5.538  0.00  0.00    +0.000 A 
ATOM     25  C21 ZR1 A 701      30.688  -1.712   4.024  0.00  0.00    +0.000 C 
ATOM     26  C19 ZR1 A 701      27.717  -2.089   4.129  0.00  0.00    +0.000 C 
ATOM     27  C20 ZR1 A 701      30.014  -3.019   3.681  0.00  0.00    +0.000 C 
ATOM     28  N4  ZR1 A 701      28.652  -2.789   3.127  0.00  0.00    +0.000 NA
ATOM     29  F3  ZR1 A 701      31.653   0.377   5.665  0.00  0.00    +0.000 F 
BRANCH  22  30
ATOM     30  C22 ZR1 A 701      30.172   2.462   6.911  0.00  0.00    +0.000 C 
ATOM     31  F1  ZR1 A 701      29.254   3.445   7.117  0.00  0.00    +0.000 F 
ATOM     32  F2  ZR1 A 701      31.117   3.024   6.111  0.00  0.00    +0.000 F 
ENDBRANCH  22  30
ENDBRANCH  18  23
ENDBRANCH   3  18
TORSDOF 4
ENDMDL
MODEL 2
REMARK VINA RESULT:      -3.2      1.842      3.096
REMARK  Name = ligand_pdbs\ZR1.pdb
REMARK  4 active torsions:
REMARK  status: ('A' for Active; 'I' for Inactive)
REMARK    1  A    between atoms: C17_8  and  C22_22
REMARK    2  A    between atoms: C13_9  and  O1_29
REMARK    3  A    between atoms: C8_17  and  N3_25
REMARK    4  A    between atoms: C10_18  and  O1_29
REMARK                            x       y       z     vdW  Elec       q    Type
REMARK                         _______ _______ _______ _____ _____    ______ ____
ROOT
ATOM      1  C9  ZR1 A 701      24.698   1.860   4.947  0.00  0.00    +0.000 C 
ATOM      2  C8  ZR1 A 701      24.623   2.849   3.788  0.00  0.00    +0.000 C 
ATOM      3  C10 ZR1 A 701      25.275   0.582   4.335  0.00  0.00    +0.000 C 
ATOM      4  C12 ZR1 A 701      25.904   2.532   3.020  0.00  0.00    +0.000 C 
ATOM      5  C11 ZR1 A 701      26.063   1.003   3.084  0.00  0.00    +0.000 C 
ATOM      6  O3  ZR1 A 701      25.905   3.010   1.677  0.00  0.00    +0.000 OA
ATOM      7  O2  ZR1 A 701      25.552   0.339   1.935  0.00  0.00    +0.000 OA
ENDROOT
BRANCH   2  17
ATOM      8  C5  ZR1 A 701      23.709   6.237   4.870  0.00  0.00    +0.000 C 
ATOM      9  C6  ZR1 A 701      23.397   4.985   4.446  0.00  0.00    +0.000 C 
ATOM     10  C3  ZR1 A 701      27.738   5.705   4.803  0.00  0.00    +0.000 C 
ATOM     11  C1  ZR1 A 701      25.144   6.316   4.919  0.00  0.00    +0.000 C 
ATOM     12  C4  ZR1 A 701      26.121   7.263   5.270  0.00  0.00    +0.000 C 
ATOM     13  C2  ZR1 A 701      25.630   5.062   4.523  0.00  0.00    +0.000 C 
ATOM     14  C7  ZR1 A 701      25.794   8.672   5.673  0.00  0.00    +0.000 C 
ATOM     15  N2  ZR1 A 701      27.424   6.941   5.213  0.00  0.00    +0.000 NA
ATOM     16  N1  ZR1 A 701      26.922   4.716   4.434  0.00  0.00    +0.000 NA
ATOM     17  N3  ZR1 A 701      24.565   4.246   4.254  0.00  0.00    +0.000 N 
ENDBRANCH   2  17
BRANCH   3  18
ATOM     18  O1  ZR1 A 701      26.101  -0.091   5.324  0.00  0.00    +0.000 OA
BRANCH  18  23
ATOM     19  C18 ZR1 A 701      27.762  -1.667   4.479  0.00  0.00    +0.000 A 
ATOM     20  C14 ZR1 A 701      28.364   0.447   5.539  0.00  0.00    +0.000 A 
ATOM     21  C15 ZR1 A 701      29.727   0.151   5.362  0.00  0.00    +0.000 A 
ATOM     22  C17 ZR1 A 701      29.104  -1.965   4.248  0.00  0.00    +0.000 A 
ATOM     23  C13 ZR1 A 701      27.406  -0.483   5.097  0.00  0.00    +0.000 A 
ATOM     24  C16 ZR1 A 701      30.049  -1.015   4.701  0.00  0.00    +0.000 A 
ATOM     25  C21 ZR1 A 701      30.807   1.037   5.957  0.00  0.00    +0.000 C 
ATOM     26  C19 ZR1 A 701      27.900   1.738   6.156  0.00  0.00    +0.000 C 
ATOM     27  C20 ZR1 A 701      30.317   2.438   6.243  0.00  0.00    +0.000 C 
ATOM     28  N4  ZR1 A 701      29.019   2.412   6.969  0.00  0.00    +0.000 NA
ATOM     29  F3  ZR1 A 701      31.342  -1.281   4.433  0.00  0.00    +0.000 F 
BRANCH  22  30
ATOM     30  C22 ZR1 A 701      29.513  -3.285   3.578  0.00  0.00    +0.000 C 
ATOM     31  F1  ZR1 A 701      30.769  -3.654   3.950  0.00  0.00    +0.000 F 
ATOM     32  F2  ZR1 A 701      29.582  -3.102   2.233  0.00  0.00    +0.000 F 
ENDBRANCH  22  30
ENDBRANCH  18  23
ENDBRANCH   3  18
TORSDOF 4
ENDMDL
MODEL 3
REMARK VINA RESULT:      -1.9      3.119      7.613
REMARK  Name = ligand_pdbs\ZR1.pdb
REMARK  4 active torsions:
REMARK  status: ('A' for Active; 'I' for Inactive)
REMARK    1  A    between atoms: C17_8  and  C22_22
REMARK    2  A    between atoms: C13_9  and  O1_29
REMARK    3  A    between atoms: C8_17  and  N3_25
REMARK    4  A    between atoms: C10_18  and  O1_29
REMARK                            x       y       z     vdW  Elec       q    Type
REMARK                         _______ _______ _______ _____ _____    ______ ____
ROOT
ATOM      1  C9  ZR1 A 701      28.069   2.365   6.441  0.00  0.00    +0.000 C 
ATOM      2  C8  ZR1 A 701      28.996   1.153   6.426  0.00  0.00    +0.000 C 
ATOM      3  C10 ZR1 A 701      29.001   3.572   6.317  0.00  0.00    +0.000 C 
ATOM      4  C12 ZR1 A 701      30.048   1.573   5.403  0.00  0.00    +0.000 C 
ATOM      5  C11 ZR1 A 701      30.289   3.075   5.642  0.00  0.00    +0.000 C 
ATOM      6  O3  ZR1 A 701      31.258   0.823   5.476  0.00  0.00    +0.000 OA
ATOM      7  O2  ZR1 A 701      31.413   3.334   6.475  0.00  0.00    +0.000 OA
ENDROOT
BRANCH   2  17
ATOM      8  C5  ZR1 A 701      27.359  -2.128   6.218  0.00  0.00    +0.000 C 
ATOM      9  C6  ZR1 A 701      28.017  -1.153   6.898  0.00  0.00    +0.000 C 
ATOM     10  C3  ZR1 A 701      27.342  -0.198   2.641  0.00  0.00    +0.000 C 
ATOM     11  C1  ZR1 A 701      27.233  -1.677   4.859  0.00  0.00    +0.000 C 
ATOM     12  C4  ZR1 A 701      26.673  -2.143   3.658  0.00  0.00    +0.000 C 
ATOM     13  C2  ZR1 A 701      27.827  -0.408   4.799  0.00  0.00    +0.000 C 
ATOM     14  C7  ZR1 A 701      26.036  -3.495   3.516  0.00  0.00    +0.000 C 
ATOM     15  N2  ZR1 A 701      26.729  -1.386   2.549  0.00  0.00    +0.000 NA
ATOM     16  N1  ZR1 A 701      27.920   0.362   3.706  0.00  0.00    +0.000 NA
ATOM     17  N3  ZR1 A 701      28.288  -0.082   6.046  0.00  0.00    +0.000 N 
ENDBRANCH   2  17
BRANCH   3  18
ATOM     18  O1  ZR1 A 701      28.333   4.616   5.560  0.00  0.00    +0.000 OA
BRANCH  18  23
ATOM     19  C18 ZR1 A 701      26.396   3.350   4.781  0.00  0.00    +0.000 A 
ATOM     20  C14 ZR1 A 701      26.361   5.771   5.077  0.00  0.00    +0.000 A 
ATOM     21  C15 ZR1 A 701      25.023   5.807   4.645  0.00  0.00    +0.000 A 
ATOM     22  C17 ZR1 A 701      25.057   3.350   4.396  0.00  0.00    +0.000 A 
ATOM     23  C13 ZR1 A 701      27.024   4.532   5.126  0.00  0.00    +0.000 A 
ATOM     24  C16 ZR1 A 701      24.411   4.607   4.355  0.00  0.00    +0.000 A 
ATOM     25  C21 ZR1 A 701      24.305   7.126   4.421  0.00  0.00    +0.000 C 
ATOM     26  C19 ZR1 A 701      27.092   7.011   5.516  0.00  0.00    +0.000 C 
ATOM     27  C20 ZR1 A 701      24.937   8.269   5.182  0.00  0.00    +0.000 C 
ATOM     28  N4  ZR1 A 701      26.412   8.287   4.990  0.00  0.00    +0.000 NA
ATOM     29  F3  ZR1 A 701      23.103   4.599   4.030  0.00  0.00    +0.000 F 
BRANCH  22  30
ATOM     30  C22 ZR1 A 701      24.354   2.044   3.995  0.00  0.00    +0.000 C 
ATOM     31  F1  ZR1 A 701      24.850   0.987   4.695  0.00  0.00    +0.000 F 
ATOM     32  F2  ZR1 A 701      24.633   1.767   2.693  0.00  0.00    +0.000 F 
ENDBRANCH  22  30
ENDBRANCH  18  23
ENDBRANCH   3  18
TORSDOF 4
ENDMDL
