MODEL 1
REMARK VINA RESULT:      -6.1      0.000      0.000
REMARK  Name = ligand_pdbs\ZR4.pdb
REMARK  3 active torsions:
REMARK  status: ('A' for Active; 'I' for Inactive)
REMARK    1  A    between atoms: C12_8  and  C11_17
REMARK    2  A    between atoms: C8_15  and  C11_17
REMARK    3  A    between atoms: C7_16  and  N3_20
REMARK                            x       y       z     vdW  Elec       q    Type
REMARK                         _______ _______ _______ _____ _____    ______ ____
ROOT
ATOM      1  C9  ZR4 A 701      29.222  -0.561   3.888  0.00  0.00    +0.000 C 
ATOM      2  C10 ZR4 A 701      27.882  -0.306   3.177  0.00  0.00    +0.000 C 
ATOM      3  C8  ZR4 A 701      29.024  -0.007   5.299  0.00  0.00    +0.000 C 
ATOM      4  C7  ZR4 A 701      26.916  -0.177   4.353  0.00  0.00    +0.000 C 
ATOM      5  O1  ZR4 A 701      27.661   0.463   5.370  0.00  0.00    +0.000 OA
ATOM      6  O3  ZR4 A 701      29.622  -1.924   3.962  0.00  0.00    +0.000 OA
ATOM      7  O4  ZR4 A 701      27.539  -1.347   2.263  0.00  0.00    +0.000 OA
ENDROOT
BRANCH   4  16
ATOM      8  C5  ZR4 A 701      23.920   1.426   3.017  0.00  0.00    +0.000 C 
ATOM      9  C6  ZR4 A 701      24.869   0.463   3.016  0.00  0.00    +0.000 C 
ATOM     10  C3  ZR4 A 701      25.250   3.313   6.356  0.00  0.00    +0.000 C 
ATOM     11  C1  ZR4 A 701      24.201   2.284   4.130  0.00  0.00    +0.000 C 
ATOM     12  C2  ZR4 A 701      25.344   1.768   4.766  0.00  0.00    +0.000 C 
ATOM     13  C4  ZR4 A 701      23.638   3.437   4.719  0.00  0.00    +0.000 C 
ATOM     14  N1  ZR4 A 701      25.909   2.256   5.876  0.00  0.00    +0.000 NA
ATOM     15  N2  ZR4 A 701      24.168   3.915   5.861  0.00  0.00    +0.000 NA
ATOM     16  N3  ZR4 A 701      25.755   0.658   4.069  0.00  0.00    +0.000 N 
ATOM     17  N4  ZR4 A 701      22.710   4.178   4.106  0.00  0.00    +0.000 NA
ENDBRANCH   4  16
BRANCH   3  18
ATOM     18  C11 ZR4 A 701      30.013   1.078   5.718  0.00  0.00    +0.000 C 
ATOM     19  O2  ZR4 A 701      30.510   0.810   7.027  0.00  0.00    +0.000 OA
BRANCH  18  23
ATOM     20  C17 ZR4 A 701      29.261   3.253   6.772  0.00  0.00    +0.000 A 
ATOM     21  C16 ZR4 A 701      28.668   4.500   6.704  0.00  0.00    +0.000 A 
ATOM     22  C13 ZR4 A 701      28.936   2.949   4.417  0.00  0.00    +0.000 A 
ATOM     23  C12 ZR4 A 701      29.396   2.462   5.637  0.00  0.00    +0.000 A 
ATOM     24  C14 ZR4 A 701      28.363   4.197   4.360  0.00  0.00    +0.000 A 
ATOM     25  C15 ZR4 A 701      28.211   4.972   5.489  0.00  0.00    +0.000 A 
ATOM     26  F1  ZR4 A 701      27.999   4.708   3.160  0.00  0.00    +0.000 F 
ATOM     27 CL1  ZR4 A 701      27.442   6.525   5.380  0.00  0.00    +0.000 Cl
ENDBRANCH  18  23
ENDBRANCH   3  18
TORSDOF 3
ENDMDL
MODEL 2
REMARK VINA RESULT:      -5.8      3.351      5.592
REMARK  Name = ligand_pdbs\ZR4.pdb
REMARK  3 active torsions:
REMARK  status: ('A' for Active; 'I' for Inactive)
REMARK    1  A    between atoms: C12_8  and  C11_17
REMARK    2  A    between atoms: C8_15  and  C11_17
REMARK    3  A    between atoms: C7_16  and  N3_20
REMARK                            x       y       z     vdW  Elec       q    Type
REMARK                         _______ _______ _______ _____ _____    ______ ____
ROOT
ATOM      1  C9  ZR4 A 701      25.597   3.671   4.747  0.00  0.00    +0.000 C 
ATOM      2  C10 ZR4 A 701      26.228   2.300   5.046  0.00  0.00    +0.000 C 
ATOM      3  C8  ZR4 A 701      26.063   4.011   3.331  0.00  0.00    +0.000 C 
ATOM      4  C7  ZR4 A 701      26.488   1.755   3.644  0.00  0.00    +0.000 C 
ATOM      5  O1  ZR4 A 701      26.841   2.885   2.871  0.00  0.00    +0.000 OA
ATOM      6  O3  ZR4 A 701      24.177   3.713   4.806  0.00  0.00    +0.000 OA
ATOM      7  O4  ZR4 A 701      25.381   1.468   5.839  0.00  0.00    +0.000 OA
ENDROOT
BRANCH   4  16
ATOM      8  C5  ZR4 A 701      29.682   0.034   3.235  0.00  0.00    +0.000 C 
ATOM      9  C6  ZR4 A 701      28.904   1.140   3.226  0.00  0.00    +0.000 C 
ATOM     10  C3  ZR4 A 701      26.768  -2.514   4.458  0.00  0.00    +0.000 C 
ATOM     11  C1  ZR4 A 701      28.841  -1.062   3.617  0.00  0.00    +0.000 C 
ATOM     12  C2  ZR4 A 701      27.555  -0.536   3.830  0.00  0.00    +0.000 C 
ATOM     13  C4  ZR4 A 701      28.981  -2.450   3.834  0.00  0.00    +0.000 C 
ATOM     14  N1  ZR4 A 701      26.486  -1.227   4.243  0.00  0.00    +0.000 NA
ATOM     15  N2  ZR4 A 701      27.927  -3.152   4.291  0.00  0.00    +0.000 NA
ATOM     16  N3  ZR4 A 701      27.599   0.813   3.577  0.00  0.00    +0.000 N 
ATOM     17  N4  ZR4 A 701      30.063  -3.134   3.446  0.00  0.00    +0.000 NA
ENDBRANCH   4  16
BRANCH   3  18
ATOM     18  C11 ZR4 A 701      26.837   5.320   3.196  0.00  0.00    +0.000 C 
ATOM     19  O2  ZR4 A 701      28.225   5.096   3.437  0.00  0.00    +0.000 OA
BRANCH  18  23
ATOM     20  C17 ZR4 A 701      27.099   7.019   5.053  0.00  0.00    +0.000 A 
ATOM     21  C16 ZR4 A 701      26.589   7.975   5.912  0.00  0.00    +0.000 A 
ATOM     22  C13 ZR4 A 701      24.945   6.758   4.035  0.00  0.00    +0.000 A 
ATOM     23  C12 ZR4 A 701      26.286   6.395   4.113  0.00  0.00    +0.000 A 
ATOM     24  C14 ZR4 A 701      24.455   7.721   4.884  0.00  0.00    +0.000 A 
ATOM     25  C15 ZR4 A 701      25.255   8.323   5.829  0.00  0.00    +0.000 A 
ATOM     26  F1  ZR4 A 701      23.173   8.138   4.747  0.00  0.00    +0.000 F 
ATOM     27 CL1  ZR4 A 701      24.584   9.505   6.911  0.00  0.00    +0.000 Cl
ENDBRANCH  18  23
ENDBRANCH   3  18
TORSDOF 3
ENDMDL
MODEL 3
REMARK VINA RESULT:      -5.6      3.591      6.412
REMARK  Name = ligand_pdbs\ZR4.pdb
REMARK  3 active torsions:
REMARK  status: ('A' for Active; 'I' for Inactive)
REMARK    1  A    between atoms: C12_8  and  C11_17
REMARK    2  A    between atoms: C8_15  and  C11_17
REMARK    3  A    between atoms: C7_16  and  N3_20
REMARK                            x       y       z     vdW  Elec       q    Type
REMARK                         _______ _______ _______ _____ _____    ______ ____
ROOT
ATOM      1  C9  ZR4 A 701      25.239   3.988   4.092  0.00  0.00    +0.000 C 
ATOM      2  C10 ZR4 A 701      26.566   4.405   4.749  0.00  0.00    +0.000 C 
ATOM      3  C8  ZR4 A 701      25.064   2.517   4.469  0.00  0.00    +0.000 C 
ATOM      4  C7  ZR4 A 701      26.714   3.365   5.857  0.00  0.00    +0.000 C 
ATOM      5  O1  ZR4 A 701      26.183   2.172   5.314  0.00  0.00    +0.000 OA
ATOM      6  O3  ZR4 A 701      24.096   4.726   4.508  0.00  0.00    +0.000 OA
ATOM      7  O4  ZR4 A 701      26.546   5.751   5.221  0.00  0.00    +0.000 OA
ENDROOT
BRANCH   4  16
ATOM      8  C5  ZR4 A 701      30.233   3.493   6.822  0.00  0.00    +0.000 C 
ATOM      9  C6  ZR4 A 701      29.040   4.069   6.550  0.00  0.00    +0.000 C 
ATOM     10  C3  ZR4 A 701      28.964  -0.333   6.340  0.00  0.00    +0.000 C 
ATOM     11  C1  ZR4 A 701      30.052   2.078   6.677  0.00  0.00    +0.000 C 
ATOM     12  C2  ZR4 A 701      28.709   1.872   6.318  0.00  0.00    +0.000 C 
ATOM     13  C4  ZR4 A 701      30.838   0.913   6.815  0.00  0.00    +0.000 C 
ATOM     14  N1  ZR4 A 701      28.124   0.683   6.130  0.00  0.00    +0.000 NA
ATOM     15  N2  ZR4 A 701      30.254  -0.292   6.672  0.00  0.00    +0.000 NA
ATOM     16  N3  ZR4 A 701      28.098   3.099   6.230  0.00  0.00    +0.000 N 
ATOM     17  N4  ZR4 A 701      32.171   0.951   6.912  0.00  0.00    +0.000 NA
ENDBRANCH   4  16
BRANCH   3  18
ATOM     18  C11 ZR4 A 701      24.935   1.553   3.292  0.00  0.00    +0.000 C 
ATOM     19  O2  ZR4 A 701      23.651   0.932   3.305  0.00  0.00    +0.000 OA
BRANCH  18  23
ATOM     20  C17 ZR4 A 701      27.292   0.811   2.745  0.00  0.00    +0.000 A 
ATOM     21  C16 ZR4 A 701      28.293  -0.142   2.710  0.00  0.00    +0.000 A 
ATOM     22  C13 ZR4 A 701      25.819  -0.749   3.814  0.00  0.00    +0.000 A 
ATOM     23  C12 ZR4 A 701      26.045   0.519   3.288  0.00  0.00    +0.000 A 
ATOM     24  C14 ZR4 A 701      26.828  -1.682   3.788  0.00  0.00    +0.000 A 
ATOM     25  C15 ZR4 A 701      28.056  -1.399   3.231  0.00  0.00    +0.000 A 
ATOM     26  F1  ZR4 A 701      26.637  -2.884   4.380  0.00  0.00    +0.000 F 
ATOM     27 CL1  ZR4 A 701      29.289  -2.621   3.180  0.00  0.00    +0.000 Cl
ENDBRANCH  18  23
ENDBRANCH   3  18
TORSDOF 3
ENDMDL
MODEL 4
REMARK VINA RESULT:      -5.5      3.150      5.037
REMARK  Name = ligand_pdbs\ZR4.pdb
REMARK  3 active torsions:
REMARK  status: ('A' for Active; 'I' for Inactive)
REMARK    1  A    between atoms: C12_8  and  C11_17
REMARK    2  A    between atoms: C8_15  and  C11_17
REMARK    3  A    between atoms: C7_16  and  N3_20
REMARK                            x       y       z     vdW  Elec       q    Type
REMARK                         _______ _______ _______ _____ _____    ______ ____
ROOT
ATOM      1  C9  ZR4 A 701      24.744   5.041   5.091  0.00  0.00    +0.000 C 
ATOM      2  C10 ZR4 A 701      24.265   3.653   4.634  0.00  0.00    +0.000 C 
ATOM      3  C8  ZR4 A 701      26.194   5.127   4.616  0.00  0.00    +0.000 C 
ATOM      4  C7  ZR4 A 701      25.237   3.337   3.500  0.00  0.00    +0.000 C 
ATOM      5  O1  ZR4 A 701      26.468   3.902   3.905  0.00  0.00    +0.000 OA
ATOM      6  O3  ZR4 A 701      24.006   6.141   4.572  0.00  0.00    +0.000 OA
ATOM      7  O4  ZR4 A 701      22.895   3.648   4.236  0.00  0.00    +0.000 OA
ENDROOT
BRANCH   4  16
ATOM      8  C5  ZR4 A 701      24.986  -0.268   2.982  0.00  0.00    +0.000 C 
ATOM      9  C6  ZR4 A 701      24.451   0.966   3.120  0.00  0.00    +0.000 C 
ATOM     10  C3  ZR4 A 701      28.857   0.934   3.201  0.00  0.00    +0.000 C 
ATOM     11  C1  ZR4 A 701      26.409  -0.114   3.066  0.00  0.00    +0.000 C 
ATOM     12  C2  ZR4 A 701      26.662   1.256   3.250  0.00  0.00    +0.000 C 
ATOM     13  C4  ZR4 A 701      27.548  -0.946   2.995  0.00  0.00    +0.000 C 
ATOM     14  N1  ZR4 A 701      27.871   1.824   3.332  0.00  0.00    +0.000 NA
ATOM     15  N2  ZR4 A 701      28.772  -0.386   3.033  0.00  0.00    +0.000 NA
ATOM     16  N3  ZR4 A 701      25.455   1.910   3.294  0.00  0.00    +0.000 N 
ATOM     17  N4  ZR4 A 701      27.472  -2.279   3.065  0.00  0.00    +0.000 NA
ENDBRANCH   4  16
BRANCH   3  18
ATOM     18  C11 ZR4 A 701      27.226   5.380   5.713  0.00  0.00    +0.000 C 
ATOM     19  O2  ZR4 A 701      28.075   6.466   5.347  0.00  0.00    +0.000 OA
BRANCH  18  23
ATOM     20  C17 ZR4 A 701      27.437   3.029   6.625  0.00  0.00    +0.000 A 
ATOM     21  C16 ZR4 A 701      28.178   1.905   6.940  0.00  0.00    +0.000 A 
ATOM     22  C13 ZR4 A 701      29.391   4.089   5.728  0.00  0.00    +0.000 A 
ATOM     23  C12 ZR4 A 701      28.032   4.133   6.025  0.00  0.00    +0.000 A 
ATOM     24  C14 ZR4 A 701      30.112   2.959   6.032  0.00  0.00    +0.000 A 
ATOM     25  C15 ZR4 A 701      29.527   1.874   6.646  0.00  0.00    +0.000 A 
ATOM     26  F1  ZR4 A 701      31.413   2.881   5.662  0.00  0.00    +0.000 F 
ATOM     27 CL1  ZR4 A 701      30.485   0.483   7.052  0.00  0.00    +0.000 Cl
ENDBRANCH  18  23
ENDBRANCH   3  18
TORSDOF 3
ENDMDL
MODEL 5
REMARK VINA RESULT:      -5.3      2.792      5.160
REMARK  Name = ligand_pdbs\ZR4.pdb
REMARK  3 active torsions:
REMARK  status: ('A' for Active; 'I' for Inactive)
REMARK    1  A    between atoms: C12_8  and  C11_17
REMARK    2  A    between atoms: C8_15  and  C11_17
REMARK    3  A    between atoms: C7_16  and  N3_20
REMARK                            x       y       z     vdW  Elec       q    Type
REMARK                         _______ _______ _______ _____ _____    ______ ____
ROOT
ATOM      1  C9  ZR4 A 701      24.836   1.039   3.560  0.00  0.00    +0.000 C 
ATOM      2  C10 ZR4 A 701      26.015   0.066   3.737  0.00  0.00    +0.000 C 
ATOM      3  C8  ZR4 A 701      25.441   2.425   3.783  0.00  0.00    +0.000 C 
ATOM      4  C7  ZR4 A 701      27.218   0.971   3.475  0.00  0.00    +0.000 C 
ATOM      5  O1  ZR4 A 701      26.853   2.228   4.008  0.00  0.00    +0.000 OA
ATOM      6  O3  ZR4 A 701      24.197   0.995   2.290  0.00  0.00    +0.000 OA
ATOM      7  O4  ZR4 A 701      25.937  -1.056   2.859  0.00  0.00    +0.000 OA
ENDROOT
BRANCH   4  16
ATOM      8  C5  ZR4 A 701      30.154  -0.776   4.762  0.00  0.00    +0.000 C 
ATOM      9  C6  ZR4 A 701      29.071  -0.678   3.958  0.00  0.00    +0.000 C 
ATOM     10  C3  ZR4 A 701      29.777   2.914   6.415  0.00  0.00    +0.000 C 
ATOM     11  C1  ZR4 A 701      30.224   0.443   5.514  0.00  0.00    +0.000 C 
ATOM     12  C2  ZR4 A 701      29.142   1.241   5.101  0.00  0.00    +0.000 C 
ATOM     13  C4  ZR4 A 701      31.069   1.012   6.492  0.00  0.00    +0.000 C 
ATOM     14  N1  ZR4 A 701      28.875   2.479   5.532  0.00  0.00    +0.000 NA
ATOM     15  N2  ZR4 A 701      30.839   2.273   6.904  0.00  0.00    +0.000 NA
ATOM     16  N3  ZR4 A 701      28.433   0.541   4.155  0.00  0.00    +0.000 N 
ATOM     17  N4  ZR4 A 701      31.985   0.298   7.154  0.00  0.00    +0.000 NA
ENDBRANCH   4  16
BRANCH   3  18
ATOM     18  C11 ZR4 A 701      24.803   3.242   4.905  0.00  0.00    +0.000 C 
ATOM     19  O2  ZR4 A 701      23.396   3.016   4.937  0.00  0.00    +0.000 OA
BRANCH  18  23
ATOM     20  C17 ZR4 A 701      24.164   5.617   4.311  0.00  0.00    +0.000 A 
ATOM     21  C16 ZR4 A 701      24.463   6.959   4.159  0.00  0.00    +0.000 A 
ATOM     22  C13 ZR4 A 701      26.388   5.192   5.098  0.00  0.00    +0.000 A 
ATOM     23  C12 ZR4 A 701      25.120   4.719   4.773  0.00  0.00    +0.000 A 
ATOM     24  C14 ZR4 A 701      26.667   6.531   4.957  0.00  0.00    +0.000 A 
ATOM     25  C15 ZR4 A 701      25.727   7.416   4.479  0.00  0.00    +0.000 A 
ATOM     26  F1  ZR4 A 701      27.871   7.005   5.358  0.00  0.00    +0.000 F 
ATOM     27 CL1  ZR4 A 701      26.134   9.092   4.275  0.00  0.00    +0.000 Cl
ENDBRANCH  18  23
ENDBRANCH   3  18
TORSDOF 3
ENDMDL
MODEL 6
REMARK VINA RESULT:      -5.2      3.244      5.454
REMARK  Name = ligand_pdbs\ZR4.pdb
REMARK  3 active torsions:
REMARK  status: ('A' for Active; 'I' for Inactive)
REMARK    1  A    between atoms: C12_8  and  C11_17
REMARK    2  A    between atoms: C8_15  and  C11_17
REMARK    3  A    between atoms: C7_16  and  N3_20
REMARK                            x       y       z     vdW  Elec       q    Type
REMARK                         _______ _______ _______ _____ _____    ______ ____
ROOT
ATOM      1  C9  ZR4 A 701      24.911   3.605   4.455  0.00  0.00    +0.000 C 
ATOM      2  C10 ZR4 A 701      25.490   2.507   5.364  0.00  0.00    +0.000 C 
ATOM      3  C8  ZR4 A 701      25.809   3.598   3.218  0.00  0.00    +0.000 C 
ATOM      4  C7  ZR4 A 701      26.248   1.634   4.366  0.00  0.00    +0.000 C 
ATOM      5  O1  ZR4 A 701      26.769   2.537   3.411  0.00  0.00    +0.000 OA
ATOM      6  O3  ZR4 A 701      23.556   3.420   4.064  0.00  0.00    +0.000 OA
ATOM      7  O4  ZR4 A 701      24.480   1.807   6.090  0.00  0.00    +0.000 OA
ENDROOT
BRANCH   4  16
ATOM      8  C5  ZR4 A 701      28.594  -0.796   5.754  0.00  0.00    +0.000 C 
ATOM      9  C6  ZR4 A 701      27.423  -0.454   5.170  0.00  0.00    +0.000 C 
ATOM     10  C3  ZR4 A 701      30.148   2.955   5.786  0.00  0.00    +0.000 C 
ATOM     11  C1  ZR4 A 701      29.344   0.416   5.916  0.00  0.00    +0.000 C 
ATOM     12  C2  ZR4 A 701      28.556   1.457   5.397  0.00  0.00    +0.000 C 
ATOM     13  C4  ZR4 A 701      30.608   0.793   6.422  0.00  0.00    +0.000 C 
ATOM     14  N1  ZR4 A 701      28.915   2.744   5.320  0.00  0.00    +0.000 NA
ATOM     15  N2  ZR4 A 701      31.001   2.076   6.312  0.00  0.00    +0.000 NA
ATOM     16  N3  ZR4 A 701      27.374   0.918   4.952  0.00  0.00    +0.000 N 
ATOM     17  N4  ZR4 A 701      31.363  -0.029   7.159  0.00  0.00    +0.000 NA
ENDBRANCH   4  16
BRANCH   3  18
ATOM     18  C11 ZR4 A 701      26.496   4.924   2.902  0.00  0.00    +0.000 C 
ATOM     19  O2  ZR4 A 701      27.912   4.773   2.973  0.00  0.00    +0.000 OA
BRANCH  18  23
ATOM     20  C17 ZR4 A 701      24.766   6.620   3.636  0.00  0.00    +0.000 A 
ATOM     21  C16 ZR4 A 701      24.342   7.657   4.447  0.00  0.00    +0.000 A 
ATOM     22  C13 ZR4 A 701      26.836   6.501   4.839  0.00  0.00    +0.000 A 
ATOM     23  C12 ZR4 A 701      26.015   6.036   3.815  0.00  0.00    +0.000 A 
ATOM     24  C14 ZR4 A 701      26.395   7.522   5.648  0.00  0.00    +0.000 A 
ATOM     25  C15 ZR4 A 701      25.166   8.114   5.456  0.00  0.00    +0.000 A 
ATOM     26  F1  ZR4 A 701      27.155   7.912   6.699  0.00  0.00    +0.000 F 
ATOM     27 CL1  ZR4 A 701      24.667   9.429   6.474  0.00  0.00    +0.000 Cl
ENDBRANCH  18  23
ENDBRANCH   3  18
TORSDOF 3
ENDMDL
MODEL 7
REMARK VINA RESULT:      -5.2      2.284      4.609
REMARK  Name = ligand_pdbs\ZR4.pdb
REMARK  3 active torsions:
REMARK  status: ('A' for Active; 'I' for Inactive)
REMARK    1  A    between atoms: C12_8  and  C11_17
REMARK    2  A    between atoms: C8_15  and  C11_17
REMARK    3  A    between atoms: C7_16  and  N3_20
REMARK                            x       y       z     vdW  Elec       q    Type
REMARK                         _______ _______ _______ _____ _____    ______ ____
ROOT
ATOM      1  C9  ZR4 A 701      29.326  -0.452   5.158  0.00  0.00    +0.000 C 
ATOM      2  C10 ZR4 A 701      29.415   0.813   6.028  0.00  0.00    +0.000 C 
ATOM      3  C8  ZR4 A 701      28.798   0.041   3.811  0.00  0.00    +0.000 C 
ATOM      4  C7  ZR4 A 701      29.487   1.920   4.978  0.00  0.00    +0.000 C 
ATOM      5  O1  ZR4 A 701      28.663   1.474   3.919  0.00  0.00    +0.000 OA
ATOM      6  O3  ZR4 A 701      30.553  -1.145   4.965  0.00  0.00    +0.000 OA
ATOM      7  O4  ZR4 A 701      30.531   0.790   6.918  0.00  0.00    +0.000 OA
ENDROOT
BRANCH   4  16
ATOM      8  C5  ZR4 A 701      28.561   4.947   6.796  0.00  0.00    +0.000 C 
ATOM      9  C6  ZR4 A 701      29.224   3.775   6.673  0.00  0.00    +0.000 C 
ATOM     10  C3  ZR4 A 701      26.907   4.876   3.088  0.00  0.00    +0.000 C 
ATOM     11  C1  ZR4 A 701      27.835   5.142   5.575  0.00  0.00    +0.000 C 
ATOM     12  C2  ZR4 A 701      28.117   4.038   4.751  0.00  0.00    +0.000 C 
ATOM     13  C4  ZR4 A 701      26.975   6.117   5.024  0.00  0.00    +0.000 C 
ATOM     14  N1  ZR4 A 701      27.667   3.859   3.503  0.00  0.00    +0.000 NA
ATOM     15  N2  ZR4 A 701      26.548   5.974   3.755  0.00  0.00    +0.000 NA
ATOM     16  N3  ZR4 A 701      28.960   3.199   5.436  0.00  0.00    +0.000 N 
ATOM     17  N4  ZR4 A 701      26.425   7.089   5.759  0.00  0.00    +0.000 NA
ENDBRANCH   4  16
BRANCH   3  18
ATOM     18  C11 ZR4 A 701      27.499  -0.610   3.342  0.00  0.00    +0.000 C 
ATOM     19  O2  ZR4 A 701      27.628  -1.046   1.990  0.00  0.00    +0.000 OA
BRANCH  18  23
ATOM     20  C17 ZR4 A 701      25.535   0.692   2.417  0.00  0.00    +0.000 A 
ATOM     21  C16 ZR4 A 701      24.475   1.567   2.563  0.00  0.00    +0.000 A 
ATOM     22  C13 ZR4 A 701      26.000   0.834   4.764  0.00  0.00    +0.000 A 
ATOM     23  C12 ZR4 A 701      26.313   0.321   3.509  0.00  0.00    +0.000 A 
ATOM     24  C14 ZR4 A 701      24.934   1.690   4.898  0.00  0.00    +0.000 A 
ATOM     25  C15 ZR4 A 701      24.177   2.074   3.813  0.00  0.00    +0.000 A 
ATOM     26  F1  ZR4 A 701      24.575   2.117   6.132  0.00  0.00    +0.000 F 
ATOM     27 CL1  ZR4 A 701      22.865   3.192   4.020  0.00  0.00    +0.000 Cl
ENDBRANCH  18  23
ENDBRANCH   3  18
TORSDOF 3
ENDMDL
MODEL 8
REMARK VINA RESULT:      -5.1      3.333      4.647
REMARK  Name = ligand_pdbs\ZR4.pdb
REMARK  3 active torsions:
REMARK  status: ('A' for Active; 'I' for Inactive)
REMARK    1  A    between atoms: C12_8  and  C11_17
REMARK    2  A    between atoms: C8_15  and  C11_17
REMARK    3  A    between atoms: C7_16  and  N3_20
REMARK                            x       y       z     vdW  Elec       q    Type
REMARK                         _______ _______ _______ _____ _____    ______ ____
ROOT
ATOM      1  C9  ZR4 A 701      26.077   0.562   3.796  0.00  0.00    +0.000 C 
ATOM      2  C10 ZR4 A 701      25.525   1.902   3.280  0.00  0.00    +0.000 C 
ATOM      3  C8  ZR4 A 701      26.114   0.718   5.316  0.00  0.00    +0.000 C 
ATOM      4  C7  ZR4 A 701      24.792   2.439   4.507  0.00  0.00    +0.000 C 
ATOM      5  O1  ZR4 A 701      25.571   2.022   5.610  0.00  0.00    +0.000 OA
ATOM      6  O3  ZR4 A 701      25.310  -0.585   3.452  0.00  0.00    +0.000 OA
ATOM      7  O4  ZR4 A 701      24.690   1.746   2.132  0.00  0.00    +0.000 OA
ENDROOT
BRANCH   4  16
ATOM      8  C5  ZR4 A 701      23.813   5.957   4.490  0.00  0.00    +0.000 C 
ATOM      9  C6  ZR4 A 701      23.540   4.634   4.437  0.00  0.00    +0.000 C 
ATOM     10  C3  ZR4 A 701      27.813   5.530   5.044  0.00  0.00    +0.000 C 
ATOM     11  C1  ZR4 A 701      25.233   6.080   4.652  0.00  0.00    +0.000 C 
ATOM     12  C2  ZR4 A 701      25.754   4.776   4.695  0.00  0.00    +0.000 C 
ATOM     13  C4  ZR4 A 701      26.174   7.124   4.788  0.00  0.00    +0.000 C 
ATOM     14  N1  ZR4 A 701      27.040   4.454   4.881  0.00  0.00    +0.000 NA
ATOM     15  N2  ZR4 A 701      27.464   6.817   5.019  0.00  0.00    +0.000 NA
ATOM     16  N3  ZR4 A 701      24.711   3.894   4.551  0.00  0.00    +0.000 N 
ATOM     17  N4  ZR4 A 701      25.875   8.401   4.529  0.00  0.00    +0.000 NA
ENDBRANCH   4  16
BRANCH   3  18
ATOM     18  C11 ZR4 A 701      27.486   0.525   5.958  0.00  0.00    +0.000 C 
ATOM     19  O2  ZR4 A 701      27.927   1.746   6.549  0.00  0.00    +0.000 OA
BRANCH  18  23
ATOM     20  C17 ZR4 A 701      29.296   0.867   4.222  0.00  0.00    +0.000 A 
ATOM     21  C16 ZR4 A 701      30.199   0.388   3.291  0.00  0.00    +0.000 A 
ATOM     22  C13 ZR4 A 701      28.638  -1.373   4.764  0.00  0.00    +0.000 A 
ATOM     23  C12 ZR4 A 701      28.503  -0.002   4.963  0.00  0.00    +0.000 A 
ATOM     24  C14 ZR4 A 701      29.550  -1.837   3.847  0.00  0.00    +0.000 A 
ATOM     25  C15 ZR4 A 701      30.321  -0.975   3.098  0.00  0.00    +0.000 A 
ATOM     26  F1  ZR4 A 701      29.745  -3.171   3.720  0.00  0.00    +0.000 F 
ATOM     27 CL1  ZR4 A 701      31.430  -1.602   1.919  0.00  0.00    +0.000 Cl
ENDBRANCH  18  23
ENDBRANCH   3  18
TORSDOF 3
ENDMDL
MODEL 9
REMARK VINA RESULT:      -5.1      2.904      4.561
REMARK  Name = ligand_pdbs\ZR4.pdb
REMARK  3 active torsions:
REMARK  status: ('A' for Active; 'I' for Inactive)
REMARK    1  A    between atoms: C12_8  and  C11_17
REMARK    2  A    between atoms: C8_15  and  C11_17
REMARK    3  A    between atoms: C7_16  and  N3_20
REMARK                            x       y       z     vdW  Elec       q    Type
REMARK                         _______ _______ _______ _____ _____    ______ ____
ROOT
ATOM      1  C9  ZR4 A 701      30.149   1.639   5.511  0.00  0.00    +0.000 C 
ATOM      2  C10 ZR4 A 701      28.814   2.140   6.089  0.00  0.00    +0.000 C 
ATOM      3  C8  ZR4 A 701      29.945   1.653   3.996  0.00  0.00    +0.000 C 
ATOM      4  C7  ZR4 A 701      28.221   2.904   4.907  0.00  0.00    +0.000 C 
ATOM      5  O1  ZR4 A 701      28.620   2.175   3.763  0.00  0.00    +0.000 OA
ATOM      6  O3  ZR4 A 701      31.289   2.420   5.847  0.00  0.00    +0.000 OA
ATOM      7  O4  ZR4 A 701      28.988   2.936   7.260  0.00  0.00    +0.000 OA
ENDROOT
BRANCH   4  16
ATOM      8  C5  ZR4 A 701      24.633   2.240   5.052  0.00  0.00    +0.000 C 
ATOM      9  C6  ZR4 A 701      25.929   1.866   5.146  0.00  0.00    +0.000 C 
ATOM     10  C3  ZR4 A 701      25.391   6.160   4.315  0.00  0.00    +0.000 C 
ATOM     11  C1  ZR4 A 701      24.629   3.641   4.745  0.00  0.00    +0.000 C 
ATOM     12  C2  ZR4 A 701      25.972   4.049   4.676  0.00  0.00    +0.000 C 
ATOM     13  C4  ZR4 A 701      23.667   4.652   4.528  0.00  0.00    +0.000 C 
ATOM     14  N1  ZR4 A 701      26.400   5.297   4.454  0.00  0.00    +0.000 NA
ATOM     15  N2  ZR4 A 701      24.079   5.921   4.346  0.00  0.00    +0.000 NA
ATOM     16  N3  ZR4 A 701      26.764   2.951   4.911  0.00  0.00    +0.000 N 
ATOM     17  N4  ZR4 A 701      22.374   4.382   4.323  0.00  0.00    +0.000 NA
ENDBRANCH   4  16
BRANCH   3  18
ATOM     18  C11 ZR4 A 701      30.148   0.310   3.298  0.00  0.00    +0.000 C 
ATOM     19  O2  ZR4 A 701      30.359   0.509   1.902  0.00  0.00    +0.000 OA
BRANCH  18  23
ATOM     20  C17 ZR4 A 701      29.201  -1.915   4.049  0.00  0.00    +0.000 A 
ATOM     21  C16 ZR4 A 701      28.147  -2.787   4.246  0.00  0.00    +0.000 A 
ATOM     22  C13 ZR4 A 701      27.686  -0.232   3.262  0.00  0.00    +0.000 A 
ATOM     23  C12 ZR4 A 701      28.987  -0.635   3.550  0.00  0.00    +0.000 A 
ATOM     24  C14 ZR4 A 701      26.646  -1.104   3.478  0.00  0.00    +0.000 A 
ATOM     25  C15 ZR4 A 701      26.861  -2.379   3.952  0.00  0.00    +0.000 A 
ATOM     26  F1  ZR4 A 701      25.374  -0.681   3.284  0.00  0.00    +0.000 F 
ATOM     27 CL1  ZR4 A 701      25.521  -3.463   4.170  0.00  0.00    +0.000 Cl
ENDBRANCH  18  23
ENDBRANCH   3  18
TORSDOF 3
ENDMDL
